<?xml version="1.0" encoding="UTF-8"?>

<!-- generated on 2022-03-29 11:01:58 by Eclipse SUMO duarouter Version 1.9.2
<configuration xmlns:xsi="http://www.w3.org/2001/XMLSchema-instance" xsi:noNamespaceSchemaLocation="http://sumo.dlr.de/xsd/duarouterConfiguration.xsd">

    <input>
        <net-file value=".\inputs\concordia_sgw_region.net.xml"/>
        <route-files value=".\inputs\random_trips_3.xml"/>
    </input>

    <output>
        <output-file value="routes.rou.xml"/>
        <alternatives-output value="routes.rou.alt.xml"/>
    </output>

    <time>
        <begin value="0"/>
        <end value="60"/>
    </time>

    <report>
        <no-warnings value="true"/>
        <ignore-errors value="true"/>
        <no-step-log value="true"/>
    </report>

</configuration>
-->

<routes xmlns:xsi="http://www.w3.org/2001/XMLSchema-instance" xsi:noNamespaceSchemaLocation="http://sumo.dlr.de/xsd/routes_file.xsd">
    <vehicle id="0" depart="0.00">
        <route edges="-165217870#1 165217870#1"/>
    </vehicle>
    <vehicle id="1" depart="1.00">
        <route edges="455083994#1 455083980#0 455083970#1 4687641#1 4687641#2 4687641#4 4687641#7 4687641#8 4687641#9 329384217#5 4320471#8 4320471#9"/>
    </vehicle>
    <vehicle id="2" depart="2.00">
        <route edges="-455083993#3 -455083993#2 330153470#1 330150736#0 330150434#2 329694554#6"/>
    </vehicle>
    <vehicle id="3" depart="3.00">
        <route edges="165217834#3 48680979#1 165217827#3 330153470#1 330150736#0"/>
    </vehicle>
    <vehicle id="4" depart="4.00">
        <route edges="165217827#3 455083993#2 455083993#3 1042466504#1 4320471#12 4320471#13 4320471#14"/>
    </vehicle>
    <vehicle id="5" depart="5.00">
        <route edges="165217834#3 165217834#6 330150434#2 330150434#5 330150434#6 330150434#7 330150434#8 330150434#9 41258973#1 41258973#2 455083980#0 455083970#1 41258971#1"/>
    </vehicle>
    <vehicle id="6" depart="6.00">
        <route edges="-165217827#1 -165217870#1 -465411712#0 465411711#1"/>
    </vehicle>
    <vehicle id="7" depart="7.00">
        <route edges="329384217#5 329384217#8 329384217#10 -165217827#3 -165217827#2 -165217827#1 465408860#1 465408858#1 465411709 465411713#0 465411715#1 -465411715#2"/>
    </vehicle>
    <vehicle id="8" depart="8.00">
        <route edges="329384217#2 329384217#5 329384217#8 329384217#10 455083993#2 455083993#3 455083994#1 -455083994#2"/>
    </vehicle>
    <vehicle id="9" depart="9.00">
        <route edges="4687641#13 399806485 399708740#1 -465411713#0 -465411709 -465408858#1 -465408860#1 -165217870#1 165217834#3 165217834#6 330150434#2 330150434#5 330150434#6 330150434#7 330150434#8 330150434#9 41258973#1 41258973#2"/>
    </vehicle>
    <vehicle id="10" depart="10.00">
        <route edges="455083994#1 330153472#1 330153472#2 330153473#1"/>
    </vehicle>
    <vehicle id="12" depart="12.00">
        <route edges="4320471#14 4320471#15 455083970#1 4687641#1 4687641#2 4687641#4 4687641#7 4687641#8 4687641#9 4687641#13"/>
    </vehicle>
    <vehicle id="13" depart="13.00">
        <route edges="455083984#1 455083984#2 455083979#1 455083981#1 330153472#1 330153472#2 41258973#1 -40325362#0"/>
    </vehicle>
    <vehicle id="14" depart="14.00">
        <route edges="165337364#6 165337364#7 165337364#8 165337364#11 165337364#12 165337364#13 165337364#14 455083984#1 455083984#2 455083979#1 455083981#1 -455083994#2"/>
    </vehicle>
    <vehicle id="15" depart="15.00">
        <route edges="-455083994#2 -455083993#3 -455083993#2 -165217827#3 -165217827#2 -165217827#1 -165217870#1 165217870#1"/>
    </vehicle>
    <vehicle id="16" depart="16.00">
        <route edges="329694554#3 330150434#5 330150434#6 330150434#7 330150434#8 330150434#9 330153473#1 -26026532#1 26026532#1"/>
    </vehicle>
    <vehicle id="17" depart="17.00">
        <route edges="165337364#13 165337364#14 546047308#0 546047308#1"/>
    </vehicle>
    <vehicle id="18" depart="18.00">
        <route edges="4320471#12 4320471#13 4320471#14 4320471#15 455083970#1 41258971#1 103896396#1"/>
    </vehicle>
    <vehicle id="19" depart="19.00">
        <route edges="1042466504#1 1042466504#4 4687641#7 4687641#8 4687641#9 329384217#5 329384217#8 329384217#10"/>
    </vehicle>
    <vehicle id="20" depart="20.00">
        <route edges="4320471#8 4320471#9 1042466504#4 4687641#7 4687641#8 4687641#9 329384217#5 329384217#8 329384217#10 330153470#1 330150736#0 330150434#2 330150434#5 330150434#6 330150434#7 331907543#1 331907543#2"/>
    </vehicle>
    <vehicle id="21" depart="21.00">
        <route edges="4687641#13 399806485 399708740#1 -465411713#0 -465411709 -465408858#1 -465408860#1 -165217870#1 165217834#3 165217834#6 330150434#2 330150434#5 330150434#6 330150434#7 330150434#8 330150434#9 465653665#1 463825906#1"/>
    </vehicle>
    <vehicle id="22" depart="22.00">
        <route edges="-26026532#1 455083976#0 41258973#1 41258973#2 -455083994#2 -455083993#3 -455083993#2 -165217827#3 -165217827#2 -165217827#1 465408860#1 465408858#1 465411709 465411713#0 465411715#1 165337364#1 165337364#2"/>
    </vehicle>
    <vehicle id="23" depart="23.00">
        <route edges="165217834#0 165217870#1 165217827#1 165217827#2 165217827#3 455083993#2 455083993#3 455083994#1 455083980#0 455083970#1 41258971#1 546047308#0 546047308#1"/>
    </vehicle>
    <vehicle id="24" depart="24.00">
        <route edges="22080579#1 22080579#2 330150736#0 330150435#1 686625290#11 686625290#12 465411711#1 165217870#1 465408860#1 465408858#1 4320471#1 4320471#2 4320471#3"/>
    </vehicle>
    <vehicle id="25" depart="25.00">
        <route edges="4886314#1 4886314#2 4886314#3 686625290#0 686625290#4 329694554#3 330150434#5 330150434#6 330150434#7"/>
    </vehicle>
    <vehicle id="26" depart="26.00">
        <route edges="165337364#1 165337364#2 329384217#1 329384217#2 329384217#5 329384217#8 329384217#10 330153470#1 330150736#0 330150434#2 330150434#5 330150434#6 330150434#7 331907543#1 331907543#2 331907543#3"/>
    </vehicle>
    <vehicle id="27" depart="27.00">
        <route edges="41258974#0 -165217870#1 165217834#3 165217834#6 330150435#1 686625290#11 48678911#3"/>
    </vehicle>
    <vehicle id="28" depart="28.00">
        <route edges="165217834#3 165217834#6 330150434#2 330150434#5 330150434#6 330150434#7 330150434#8 330150434#9 41258973#1 41258973#2 455083980#0 8140256#1"/>
    </vehicle>
    <vehicle id="29" depart="29.00">
        <route edges="-455083994#2 455083994#1 330153472#1 330153472#2 41258973#1 -40325362#0"/>
    </vehicle>
    <vehicle id="30" depart="30.00">
        <route edges="4320471#2 4320471#3 4320471#4 329384217#8 329384217#10 -165217827#3 -165217827#2 -165217827#1 465408860#1 465408858#1"/>
    </vehicle>
    <vehicle id="31" depart="31.00">
        <route edges="-41258976#2 455083980#0 455083970#1 4687641#1 4687641#2 4687641#4 4687641#7 4687641#8 4687641#9 329384217#5 329384217#8 329384217#10"/>
    </vehicle>
    <vehicle id="32" depart="32.00">
        <route edges="37997317#1 37997317#2 686625290#4"/>
    </vehicle>
    <vehicle id="33" depart="33.00">
        <route edges="-165217827#2 165217827#2 165217827#3 455083993#2 455083993#3 455083994#1 455083980#0"/>
    </vehicle>
    <vehicle id="34" depart="34.00">
        <route edges="37997317#2 686625290#4 686625290#6 686625290#7 686625290#11 48678911#3 165217834#6"/>
    </vehicle>
    <vehicle id="35" depart="35.00">
        <route edges="-455083994#2 -455083993#3 -455083993#2 330153470#1 330150736#0 330150434#2"/>
    </vehicle>
    <vehicle id="36" depart="36.00">
        <route edges="686625290#11 48678911#3 165217834#6 330150434#2 330150434#5 330150434#6 330150434#7 330150434#8 330150434#9 41258973#1 41258973#2 455083980#0 455083970#1 4687641#1 4687641#2 4687641#4"/>
    </vehicle>
    <vehicle id="37" depart="37.00">
        <route edges="331907542#2 331907542#3 20178495#2 686625290#0 686625290#4 329694554#3 330150434#5 330150434#6 330150434#7 330150434#8 330150434#9 41258973#1 41258973#2 455083980#0 455083970#1 41258971#1 103896396#1"/>
    </vehicle>
    <vehicle id="38" depart="38.00">
        <route edges="4687641#9 329384217#5 4320471#8 4320471#9 1042466504#4 1042466504#7 165337364#11 165337364#12 165337364#13"/>
    </vehicle>
    <vehicle id="39" depart="39.00">
        <route edges="4320471#12 4320471#13 4320471#14 4320471#15 455083970#1 4687641#1 4687641#2 4687641#4 4687641#7 4687641#8 4687641#9 4687641#13 399806485 399708740#1 -465411713#0"/>
    </vehicle>
    <vehicle id="40" depart="40.00">
        <route edges="37997317#2 686625290#4 329694554#3 330150434#5 330150434#6 330150434#7 330150434#8 330150434#9 465653665#1 463825906#1"/>
    </vehicle>
    <vehicle id="41" depart="41.00">
        <route edges="-165217827#1 465408860#1 465408858#1 465411709 465411713#0 465411715#1 165337364#1 165337364#2 165337364#6"/>
    </vehicle>
    <vehicle id="42" depart="42.00">
        <route edges="546047309#0 455083984#1 455083984#2 4687641#1 4687641#2 4687641#4 4687641#7"/>
    </vehicle>
    <vehicle id="43" depart="43.00">
        <route edges="20178495#0 20178495#1 20178495#2 686625290#0 686625290#4 686625290#6 686625290#7 686625290#11 686625290#12 465411711#1 165217870#1 -41258974#0"/>
    </vehicle>
    <vehicle id="44" depart="44.00">
        <route edges="561690379#0 -465411715#2 -465411713#0 -465411709 -465408858#1 -465408860#1 165217827#1 165217827#2 165217827#3 455083993#2 455083993#3 455083994#1 -455083994#2"/>
    </vehicle>
    <vehicle id="45" depart="45.00">
        <route edges="-41258976#2 -455083994#2 455083994#1"/>
    </vehicle>
    <vehicle id="46" depart="46.00">
        <route edges="-465411709 -465408858#1 -465408860#1 -165217870#1 165217834#3 165217834#6 330150435#1"/>
    </vehicle>
    <vehicle id="47" depart="47.00">
        <route edges="165337364#13 165337364#14 455083984#1 455083984#2 4687641#1 4687641#2"/>
    </vehicle>
    <vehicle id="48" depart="48.00">
        <route edges="165217834#0 165217834#3 165217834#6 330150434#2 330150434#5 330150434#6 330150434#7 330150434#8 330150434#9 330153473#1"/>
    </vehicle>
    <vehicle id="49" depart="49.00">
        <route edges="165217827#3 -165217827#3 -165217827#2 -165217827#1 465408860#1 465408858#1 465411709 465411713#0 465411715#1 165337364#1 165337364#2"/>
    </vehicle>
    <vehicle id="50" depart="50.00">
        <route edges="4320471#9 1042466504#4 4687641#7 4687641#8 4687641#9 329384217#5 329384217#8 329384217#10 330153470#1 330150736#0 330150434#2"/>
    </vehicle>
    <vehicle id="51" depart="51.00">
        <route edges="-465408860#1 165217827#1"/>
    </vehicle>
    <vehicle id="52" depart="52.00">
        <route edges="41258974#0 165217827#1 165217827#2"/>
    </vehicle>
    <vehicle id="53" depart="53.00">
        <route edges="-41258976#2 -455083994#2 -455083993#3 -455083993#2 -165217827#3 -165217827#2 -165217827#1 465408860#1 465408858#1 4320471#1"/>
    </vehicle>
    <vehicle id="54" depart="54.00">
        <route edges="48680979#1 165217827#3 455083993#2 455083993#3 455083994#1 455083980#0 455083970#1 4687641#1"/>
    </vehicle>
    <vehicle id="55" depart="55.00">
        <route edges="165217870#1 465408860#1 465408858#1 4320471#1 4320471#2 4320471#3 4320471#4 4320471#8"/>
    </vehicle>
    <vehicle id="56" depart="56.00">
        <route edges="-465411712#0 465411711#1 165217870#1 165217827#1 165217827#2 165217827#3 455083993#2 455083993#3 455083994#1 455083980#0 455083970#1 41258971#1 546047308#0 546047308#1"/>
    </vehicle>
    <vehicle id="57" depart="57.00">
        <route edges="330153472#2 465653665#1 463825906#1"/>
    </vehicle>
    <vehicle id="58" depart="58.00">
        <route edges="165217827#1 165217827#2 165217827#3 455083993#2 455083993#3 455083994#1 -455083994#2"/>
    </vehicle>
    <vehicle id="59" depart="59.00">
        <route edges="330150434#8 330150434#9"/>
    </vehicle>
</routes>
