<?xml version="1.0" encoding="UTF-8"?>

<!-- generated on 2022-03-28 10:48:08 by Eclipse SUMO netconvert Version 1.9.2
<configuration xmlns:xsi="http://www.w3.org/2001/XMLSchema-instance" xsi:noNamespaceSchemaLocation="http://sumo.dlr.de/xsd/netconvertConfiguration.xsd">

    <input>
        <osm-files value=".\concordia_sgw_region.osm"/>
    </input>

    <output>
        <output-prefix value="TIME"/>
        <output-file value=".\concordia_sgw_region.net.xml"/>
        <output.street-names value="true"/>
        <output.original-names value="true"/>
    </output>

    <projection>
        <proj.utm value="true"/>
        <proj.plain-geo value="true"/>
    </projection>

    <processing>
        <plain.extend-edge-shape value="true"/>
        <geometry.remove value="true"/>
        <roundabouts.guess value="true"/>
    </processing>

    <tls_building>
        <tls.discard-simple value="true"/>
        <tls.join value="true"/>
        <tls.guess-signals value="true"/>
    </tls_building>

    <ramp_guessing>
        <ramps.guess value="true"/>
    </ramp_guessing>

    <junctions>
        <junctions.join value="true"/>
    </junctions>

    <pedestrian>
        <crossings.guess value="true"/>
    </pedestrian>

    <formats>
        <osm.lane-access value="true"/>
        <osm.all-attributes value="true"/>
        <osm.extra-attributes value="all"/>
    </formats>

    <report>
        <aggregate-warnings value="5"/>
        <error-log value=".\logs.txt"/>
        <ignore-errors value="true"/>
    </report>

</configuration>
-->

<net version="1.9" junctionCornerDetail="5" walkingareas="true" limitTurnSpeed="5.50" xmlns:xsi="http://www.w3.org/2001/XMLSchema-instance" xsi:noNamespaceSchemaLocation="http://sumo.dlr.de/xsd/net_file.xsd">

    <location netOffset="-610603.04,-5038394.91" convBoundary="0.00,0.00,1046.67,1046.04" origBoundary="-73.584469,45.490242,-73.571046,45.499660" projParameter="+proj=utm +zone=18 +ellps=WGS84 +datum=WGS84 +units=m +no_defs"/>

    <type id="highway.bridleway" priority="1" numLanes="1" speed="2.78" allow="pedestrian" oneway="1" width="2.00"/>
    <type id="highway.bus_guideway" priority="1" numLanes="1" speed="27.78" allow="bus" oneway="1"/>
    <type id="highway.cycleway" priority="1" numLanes="1" speed="8.33" allow="bicycle" oneway="0" width="1.00"/>
    <type id="highway.footway" priority="1" numLanes="1" speed="2.78" allow="pedestrian" oneway="1" width="2.00"/>
    <type id="highway.ford" priority="1" numLanes="1" speed="2.78" allow="army" oneway="0"/>
    <type id="highway.living_street" priority="2" numLanes="1" speed="2.78" disallow="tram rail_urban rail rail_electric rail_fast ship" oneway="0"/>
    <type id="highway.motorway" priority="14" numLanes="2" speed="39.44" allow="private emergency authority army vip passenger hov taxi bus coach delivery truck trailer motorcycle evehicle custom1 custom2" oneway="1"/>
    <type id="highway.motorway_link" priority="9" numLanes="1" speed="22.22" allow="private emergency authority army vip passenger hov taxi bus coach delivery truck trailer motorcycle evehicle custom1 custom2" oneway="1"/>
    <type id="highway.path" priority="1" numLanes="1" speed="2.78" allow="pedestrian bicycle" oneway="0" width="2.00"/>
    <type id="highway.pedestrian" priority="1" numLanes="1" speed="2.78" allow="pedestrian" oneway="1" width="2.00"/>
    <type id="highway.primary" priority="12" numLanes="2" speed="27.78" disallow="tram rail_urban rail rail_electric rail_fast ship" oneway="0"/>
    <type id="highway.primary_link" priority="7" numLanes="1" speed="22.22" disallow="tram rail_urban rail rail_electric rail_fast ship" oneway="0"/>
    <type id="highway.raceway" priority="15" numLanes="2" speed="83.33" allow="vip" oneway="0"/>
    <type id="highway.residential" priority="3" numLanes="1" speed="13.89" disallow="tram rail_urban rail rail_electric rail_fast ship" oneway="0"/>
    <type id="highway.secondary" priority="11" numLanes="1" speed="27.78" disallow="tram rail_urban rail rail_electric rail_fast ship" oneway="0"/>
    <type id="highway.secondary_link" priority="6" numLanes="1" speed="22.22" disallow="tram rail_urban rail rail_electric rail_fast ship" oneway="0"/>
    <type id="highway.service" priority="1" numLanes="1" speed="5.56" allow="pedestrian delivery bicycle" oneway="0"/>
    <type id="highway.stairs" priority="1" numLanes="1" speed="1.39" allow="pedestrian" oneway="1" width="2.00"/>
    <type id="highway.step" priority="1" numLanes="1" speed="1.39" allow="pedestrian" oneway="1" width="2.00"/>
    <type id="highway.steps" priority="1" numLanes="1" speed="1.39" allow="pedestrian" oneway="1" width="2.00"/>
    <type id="highway.tertiary" priority="10" numLanes="1" speed="22.22" disallow="tram rail_urban rail rail_electric rail_fast ship" oneway="0"/>
    <type id="highway.tertiary_link" priority="5" numLanes="1" speed="22.22" disallow="tram rail_urban rail rail_electric rail_fast ship" oneway="0"/>
    <type id="highway.track" priority="1" numLanes="1" speed="5.56" allow="pedestrian motorcycle moped bicycle" oneway="0"/>
    <type id="highway.trunk" priority="13" numLanes="2" speed="27.78" disallow="pedestrian bicycle tram rail_urban rail rail_electric rail_fast ship" oneway="0"/>
    <type id="highway.trunk_link" priority="8" numLanes="1" speed="22.22" disallow="pedestrian bicycle tram rail_urban rail rail_electric rail_fast ship" oneway="0"/>
    <type id="highway.unclassified" priority="4" numLanes="1" speed="13.89" disallow="tram rail_urban rail rail_electric rail_fast ship" oneway="0"/>
    <type id="highway.unsurfaced" priority="1" numLanes="1" speed="8.33" disallow="tram rail_urban rail rail_electric rail_fast ship" oneway="0"/>
    <type id="railway.highspeed" priority="21" numLanes="1" speed="69.44" allow="rail_fast" oneway="1"/>
    <type id="railway.light_rail" priority="19" numLanes="1" speed="27.78" allow="rail_urban" oneway="1"/>
    <type id="railway.preserved" priority="16" numLanes="1" speed="27.78" allow="rail" oneway="1"/>
    <type id="railway.rail" priority="20" numLanes="1" speed="44.44" allow="rail" oneway="1"/>
    <type id="railway.subway" priority="18" numLanes="1" speed="27.78" allow="rail_urban" oneway="1"/>
    <type id="railway.tram" priority="17" numLanes="1" speed="13.89" allow="tram" oneway="1"/>

    <edge id=":1192163643_0" function="internal">
        <lane id=":1192163643_0_0" index="0" allow="pedestrian delivery bicycle" speed="6.24" length="7.81" shape="523.14,661.97 522.79,660.57 523.27,659.08 524.60,657.50 526.76,655.83"/>
    </edge>
    <edge id=":1192163643_1" function="internal">
        <lane id=":1192163643_1_0" index="0" allow="pedestrian delivery bicycle" speed="3.65" length="4.67" shape="523.14,661.97 523.24,660.53 523.74,659.78 524.63,659.73 525.92,660.38"/>
    </edge>
    <edge id=":1192163643_2" function="internal">
        <lane id=":1192163643_2_0" index="0" disallow="tram rail_urban rail rail_electric rail_fast ship" speed="8.33" length="9.37" shape="518.90,660.91 526.76,655.83"/>
    </edge>
    <edge id=":1192163643_3" function="internal">
        <lane id=":1192163643_3_0" index="0" allow="pedestrian delivery bicycle" speed="6.01" length="7.92" shape="518.90,660.91 521.33,659.56 523.31,659.02 524.84,659.29 525.92,660.38"/>
    </edge>
    <edge id=":1192163643_w0" function="walkingarea">
        <lane id=":1192163643_w0_0" index="0" allow="pedestrian" speed="1.00" length="5.96" width="3.20" shape="521.76,662.76 524.53,661.17 524.53,661.17 527.31,659.58 527.65,657.16 525.88,654.49 518.01,659.58 519.78,662.25 521.49,662.38 521.20,662.12 520.88,661.97 520.54,661.95 520.17,662.04"/>
    </edge>
    <edge id=":1195282763_0" function="internal">
        <lane id=":1195282763_0_0" index="0" allow="pedestrian delivery bicycle" speed="5.03" length="5.01" shape="717.76,744.98 718.67,746.00 719.70,746.48 720.82,746.42 722.06,745.82"/>
    </edge>
    <edge id=":1195282763_1" function="internal">
        <lane id=":1195282763_1_0" index="0" allow="pedestrian delivery bicycle" speed="3.65" length="4.67" shape="717.76,744.98 717.76,746.42 717.32,747.20 716.43,747.31 715.10,746.76"/>
    </edge>
    <edge id=":1195282763_2" function="internal">
        <lane id=":1195282763_2_0" index="0" allow="pedestrian delivery bicycle" speed="5.06" length="5.02" shape="714.27,751.09 715.28,750.17 715.76,749.14 715.70,748.00 715.10,746.76"/>
    </edge>
    <edge id=":1195282763_3" function="internal">
        <lane id=":1195282763_3_0" index="0" disallow="tram rail_urban rail rail_electric rail_fast ship" speed="8.33" length="9.40" shape="714.27,751.09 722.06,745.82"/>
    </edge>
    <edge id=":1195282763_w0" function="walkingarea">
        <lane id=":1195282763_w0_0" index="0" allow="pedestrian" speed="1.00" length="5.91" width="3.20" shape="722.96,747.14 721.16,744.49 719.09,744.09 716.43,745.87 716.43,745.87 713.77,747.64 713.38,749.76 715.17,752.41"/>
    </edge>
    <edge id=":1195282814_0" function="internal">
        <lane id=":1195282814_0_0" index="0" allow="pedestrian delivery bicycle" speed="6.12" length="7.78" shape="584.73,841.22 584.32,839.86 584.77,838.39 586.09,836.81 588.28,835.13"/>
    </edge>
    <edge id=":1195282814_1" function="internal">
        <lane id=":1195282814_1_0" index="0" allow="pedestrian delivery bicycle" speed="3.65" length="4.67" shape="584.73,841.22 584.76,839.78 585.21,839.01 586.10,838.92 587.42,839.49"/>
    </edge>
    <edge id=":1195282814_2" function="internal">
        <lane id=":1195282814_2_0" index="0" disallow="tram rail_urban rail rail_electric rail_fast ship" speed="8.33" length="9.40" shape="580.44,840.32 588.28,835.13"/>
    </edge>
    <edge id=":1195282814_3" function="internal">
        <lane id=":1195282814_3_0" index="0" allow="pedestrian delivery bicycle" speed="6.07" length="7.79" shape="580.44,840.32 582.85,838.96 584.82,838.37 586.35,838.55 587.42,839.49"/>
    </edge>
    <edge id=":1195282814_w0" function="walkingarea">
        <lane id=":1195282814_w0_0" index="0" allow="pedestrian" speed="1.00" length="5.92" width="3.20" shape="583.39,842.09 586.08,840.36 586.08,840.36 588.77,838.63 589.16,836.46 587.39,833.79 579.56,838.99 581.33,841.66 583.10,841.73 582.80,841.48 582.47,841.35 582.11,841.34 581.73,841.44"/>
    </edge>
    <edge id=":1195282819_0" function="internal">
        <lane id=":1195282819_0_0" index="0" allow="pedestrian delivery bicycle" speed="5.56" length="6.34" shape="636.59,806.85 633.20,801.50"/>
    </edge>
    <edge id=":1195282819_1" function="internal">
        <lane id=":1195282819_1_0" index="0" allow="pedestrian delivery bicycle" speed="6.15" length="7.84" shape="636.59,806.85 636.18,805.47 636.65,803.99 637.98,802.41 640.19,800.71"/>
    </edge>
    <edge id=":1195282819_2" function="internal">
        <lane id=":1195282819_2_0" index="0" allow="pedestrian delivery bicycle" speed="3.65" length="4.67" shape="636.59,806.85 636.62,805.40 637.08,804.64 637.97,804.54 639.29,805.12"/>
    </edge>
    <edge id=":1195282819_3" function="internal">
        <lane id=":1195282819_3_0" index="0" allow="pedestrian delivery bicycle" speed="5.02" length="5.03" shape="635.90,799.79 636.80,800.84 637.81,801.35 638.94,801.30 640.19,800.71"/>
    </edge>
    <edge id=":1195282819_4" function="internal">
        <lane id=":1195282819_4_0" index="0" allow="pedestrian delivery bicycle" speed="5.56" length="6.32" shape="635.90,799.79 639.29,805.12"/>
    </edge>
    <edge id=":1195282819_5" function="internal">
        <lane id=":1195282819_5_0" index="0" allow="pedestrian delivery bicycle" speed="3.65" length="4.67" shape="635.90,799.79 635.87,801.23 635.40,802.00 634.51,802.08 633.20,801.50"/>
    </edge>
    <edge id=":1195282819_6" function="internal">
        <lane id=":1195282819_6_0" index="0" allow="pedestrian delivery bicycle" speed="5.14" length="5.14" shape="632.30,805.94 633.33,805.01 633.83,803.96 633.78,802.79 633.20,801.50"/>
    </edge>
    <edge id=":1195282819_7" function="internal">
        <lane id=":1195282819_7_0" index="0" disallow="tram rail_urban rail rail_electric rail_fast ship" speed="8.33" length="9.46" shape="632.30,805.94 640.19,800.71"/>
    </edge>
    <edge id=":1195282819_8" function="internal">
        <lane id=":1195282819_8_0" index="0" allow="pedestrian delivery bicycle" speed="6.06" length="7.80" shape="632.30,805.94 634.72,804.58 636.68,803.99 638.21,804.17 639.29,805.12"/>
    </edge>
    <edge id=":1195282819_w0" function="walkingarea">
        <lane id=":1195282819_w0_0" index="0" allow="pedestrian" speed="1.00" length="5.92" width="3.20" shape="635.24,807.71 637.94,805.98 637.94,805.98 640.64,804.26 641.07,802.04 639.31,799.38 637.25,798.94 634.55,800.64 634.55,800.64 631.84,802.35 631.42,804.61 633.18,807.27 634.96,807.34 634.65,807.10 634.32,806.97 633.97,806.95 633.59,807.05"/>
    </edge>
    <edge id=":1195282888_0" function="internal">
        <lane id=":1195282888_0_0" index="0" allow="pedestrian delivery bicycle" speed="5.12" length="5.13" shape="615.43,774.24 614.52,773.22 613.48,772.74 612.31,772.80 611.00,773.40"/>
    </edge>
    <edge id=":1195282888_1" function="internal">
        <lane id=":1195282888_1_0" index="0" allow="pedestrian delivery bicycle" speed="5.56" length="9.44" shape="615.43,774.24 610.19,766.39"/>
    </edge>
    <edge id=":1195282888_2" function="internal">
        <lane id=":1195282888_2_0" index="0" allow="pedestrian delivery bicycle" speed="3.65" length="4.67" shape="615.43,774.24 615.44,772.79 615.90,772.02 616.78,771.92 618.11,772.49"/>
    </edge>
    <edge id=":1195282888_3" function="internal">
        <lane id=":1195282888_3_0" index="0" allow="pedestrian delivery bicycle" speed="5.56" length="9.50" shape="612.83,764.59 618.11,772.49"/>
    </edge>
    <edge id=":1195282888_4" function="internal">
        <lane id=":1195282888_4_0" index="0" allow="pedestrian delivery bicycle" speed="5.56" length="10.35" shape="612.83,764.59 614.09,767.15 614.20,769.47 613.17,771.55 611.00,773.40"/>
    </edge>
    <edge id=":1195282888_5" function="internal">
        <lane id=":1195282888_5_0" index="0" allow="pedestrian delivery bicycle" speed="3.65" length="4.67" shape="612.83,764.59 612.84,766.03 612.41,766.81 611.52,766.93 610.19,766.39"/>
    </edge>
    <edge id=":1195282888_6" function="internal">
        <lane id=":1195282888_6_0" index="0" allow="pedestrian delivery bicycle" speed="5.00" length="5.05" shape="609.29,770.69 610.35,769.79 610.86,768.77 610.80,767.64 610.19,766.39"/>
    </edge>
    <edge id=":1195282888_7" function="internal">
        <lane id=":1195282888_7_0" index="0" allow="pedestrian delivery bicycle" speed="5.56" length="10.22" shape="609.29,770.69 611.88,769.52 614.21,769.43 616.28,770.42 618.11,772.49"/>
    </edge>
    <edge id=":1195282888_8" function="internal">
        <lane id=":1195282888_8_0" index="0" allow="pedestrian delivery bicycle" speed="3.65" length="4.67" shape="609.29,770.69 610.73,770.73 611.50,771.19 611.59,772.08 611.00,773.40"/>
    </edge>
    <edge id=":1195282888_w0" function="walkingarea">
        <lane id=":1195282888_w0_0" index="0" allow="pedestrian" speed="1.00" length="6.92" width="3.20" shape="614.09,775.11 616.77,773.36 616.77,773.36 619.45,771.61 614.15,763.68 611.51,765.49 611.51,765.49 608.86,767.30 608.44,769.33 610.14,772.04 610.14,772.04 611.85,774.75 613.80,774.75 613.48,774.51 613.12,774.39 612.73,774.39 612.30,774.51"/>
    </edge>
    <edge id=":1195282901_w0" function="walkingarea">
        <lane id=":1195282901_w0_0" index="0" allow="pedestrian" speed="1.00" length="4.02" width="2.00" shape="839.62,625.47 841.27,624.35 841.71,622.32 840.66,620.62 836.81,622.05 837.04,624.03 839.24,624.93 838.91,624.52 838.57,624.23 838.17,624.06 837.68,624.00"/>
    </edge>
    <edge id=":1195282905_0" function="internal">
        <lane id=":1195282905_0_0" index="0" disallow="tram rail_urban rail rail_electric rail_fast ship" speed="8.33" length="9.40" shape="580.88,737.59 573.05,742.79"/>
    </edge>
    <edge id=":1195282905_1" function="internal">
        <lane id=":1195282905_1_0" index="0" allow="pedestrian delivery bicycle" speed="6.07" length="7.79" shape="580.88,737.59 578.47,738.95 576.51,739.55 574.99,739.38 573.91,738.44"/>
    </edge>
    <edge id=":1195282905_2" function="internal">
        <lane id=":1195282905_2_0" index="0" allow="pedestrian delivery bicycle" speed="6.11" length="7.77" shape="576.59,736.70 577.01,738.06 576.55,739.53 575.24,741.10 573.05,742.79"/>
    </edge>
    <edge id=":1195282905_3" function="internal">
        <lane id=":1195282905_3_0" index="0" allow="pedestrian delivery bicycle" speed="3.65" length="4.67" shape="576.59,736.70 576.57,738.14 576.12,738.91 575.23,739.01 573.91,738.44"/>
    </edge>
    <edge id=":1195282905_w0" function="walkingarea">
        <lane id=":1195282905_w0_0" index="0" allow="pedestrian" speed="1.00" length="5.92" width="3.20" shape="581.77,738.92 580.00,736.26 577.93,735.83 575.25,737.57 575.25,737.57 572.56,739.31 572.17,741.45 573.93,744.12"/>
    </edge>
    <edge id=":1195282926_0" function="internal">
        <lane id=":1195282926_0_0" index="0" allow="pedestrian delivery bicycle" speed="5.56" length="9.50" shape="687.14,609.35 679.12,614.44"/>
    </edge>
    <edge id=":1195282926_1" function="internal">
        <lane id=":1195282926_1_0" index="0" allow="pedestrian delivery bicycle" speed="5.56" length="10.22" shape="687.14,609.35 684.61,610.52 682.30,610.59 680.23,609.57 678.39,607.44"/>
    </edge>
    <edge id=":1195282926_2" function="internal">
        <lane id=":1195282926_2_0" index="0" allow="pedestrian delivery bicycle" speed="3.65" length="4.67" shape="687.14,609.35 685.70,609.33 684.93,608.88 684.83,607.99 685.40,606.66"/>
    </edge>
    <edge id=":1195282926_3" function="internal">
        <lane id=":1195282926_3_0" index="0" allow="pedestrian delivery bicycle" speed="5.05" length="5.04" shape="681.08,605.71 681.99,606.76 683.02,607.27 684.15,607.24 685.40,606.66"/>
    </edge>
    <edge id=":1195282926_4" function="internal">
        <lane id=":1195282926_4_0" index="0" allow="pedestrian delivery bicycle" speed="5.56" length="10.25" shape="681.08,605.71 682.26,608.27 682.32,610.58 681.27,612.63 679.12,614.44"/>
    </edge>
    <edge id=":1195282926_5" function="internal">
        <lane id=":1195282926_5_0" index="0" allow="pedestrian delivery bicycle" speed="3.65" length="4.67" shape="681.08,605.71 681.06,607.15 680.61,607.92 679.72,608.02 678.39,607.44"/>
    </edge>
    <edge id=":1195282926_6" function="internal">
        <lane id=":1195282926_6_0" index="0" allow="pedestrian delivery bicycle" speed="5.02" length="5.02" shape="677.43,611.72 678.49,610.83 679.00,609.83 678.97,608.70 678.39,607.44"/>
    </edge>
    <edge id=":1195282926_7" function="internal">
        <lane id=":1195282926_7_0" index="0" allow="pedestrian delivery bicycle" speed="5.56" length="9.43" shape="677.43,611.72 685.40,606.66"/>
    </edge>
    <edge id=":1195282926_8" function="internal">
        <lane id=":1195282926_8_0" index="0" allow="pedestrian delivery bicycle" speed="3.65" length="4.67" shape="677.43,611.72 678.87,611.77 679.63,612.24 679.71,613.13 679.12,614.44"/>
    </edge>
    <edge id=":1195282926_w0" function="walkingarea">
        <lane id=":1195282926_w0_0" index="0" allow="pedestrian" speed="1.00" length="6.89" width="3.20" shape="688.01,610.69 686.27,608.01 686.27,608.01 684.52,605.32 682.43,604.84 679.74,606.58 679.74,606.58 677.05,608.31 676.59,610.36 678.27,613.08 678.27,613.08 679.96,615.80"/>
    </edge>
    <edge id=":1195282940_0" function="internal">
        <lane id=":1195282940_0_0" index="0" disallow="tram rail_urban rail rail_electric rail_fast ship" speed="8.33" length="5.00" shape="857.37,654.23 861.51,651.43"/>
    </edge>
    <edge id=":1195282940_w0" function="walkingarea">
        <lane id=":1195282940_w0_0" index="0" allow="pedestrian" speed="1.00" length="4.32" width="3.20" shape="862.41,652.75 860.61,650.10 858.52,649.70 856.87,650.82 856.47,652.90 858.27,655.55"/>
    </edge>
    <edge id=":1195282990_0" function="internal">
        <lane id=":1195282990_0_0" index="0" disallow="tram rail_urban rail rail_electric rail_fast ship" speed="13.89" length="5.00" shape="862.91,611.04 860.19,606.84"/>
        <lane id=":1195282990_0_1" index="1" disallow="tram rail_urban rail rail_electric rail_fast ship" speed="13.89" length="5.00" shape="865.59,609.29 862.87,605.10"/>
        <lane id=":1195282990_0_2" index="2" disallow="tram rail_urban rail rail_electric rail_fast ship" speed="13.89" length="5.00" shape="868.28,607.55 865.55,603.36"/>
    </edge>
    <edge id=":1195282990_w0" function="walkingarea">
        <lane id=":1195282990_w0_0" index="0" allow="pedestrian" speed="1.00" length="4.34" width="3.20" shape="861.57,611.91 864.25,610.16 864.25,610.16 866.93,608.42 866.93,608.42 869.62,606.68 866.90,602.49 864.21,604.23 864.21,604.23 861.53,605.97 861.53,605.97 858.84,607.71 858.38,609.75 859.43,611.46 861.27,611.52 860.95,611.26 860.62,611.13 860.26,611.12 859.87,611.23"/>
    </edge>
    <edge id=":1195282992_0" function="internal">
        <lane id=":1195282992_0_0" index="0" allow="pedestrian delivery bicycle" speed="5.56" length="9.44" shape="612.26,872.28 604.34,877.43"/>
    </edge>
    <edge id=":1195282992_1" function="internal">
        <lane id=":1195282992_1_0" index="0" allow="pedestrian delivery bicycle" speed="5.56" length="10.21" shape="612.26,872.28 609.72,873.47 607.42,873.56 605.35,872.54 603.52,870.43"/>
    </edge>
    <edge id=":1195282992_2" function="internal">
        <lane id=":1195282992_2_0" index="0" allow="pedestrian delivery bicycle" speed="3.65" length="4.67" shape="612.26,872.28 610.81,872.27 610.04,871.82 609.94,870.93 610.50,869.61"/>
    </edge>
    <edge id=":1195282992_3" function="internal">
        <lane id=":1195282992_3_0" index="0" allow="pedestrian delivery bicycle" speed="5.03" length="5.01" shape="606.21,868.70 607.11,869.74 608.13,870.23 609.26,870.19 610.50,869.61"/>
    </edge>
    <edge id=":1195282992_4" function="internal">
        <lane id=":1195282992_4_0" index="0" allow="pedestrian delivery bicycle" speed="5.56" length="10.18" shape="606.21,868.70 607.38,871.24 607.45,873.54 606.44,875.60 604.34,877.43"/>
    </edge>
    <edge id=":1195282992_5" function="internal">
        <lane id=":1195282992_5_0" index="0" allow="pedestrian delivery bicycle" speed="3.65" length="4.67" shape="606.21,868.70 606.19,870.14 605.73,870.91 604.84,871.00 603.52,870.43"/>
    </edge>
    <edge id=":1195282992_6" function="internal">
        <lane id=":1195282992_6_0" index="0" allow="pedestrian delivery bicycle" speed="5.05" length="5.02" shape="602.61,874.74 603.64,873.84 604.14,872.82 604.10,871.68 603.52,870.43"/>
    </edge>
    <edge id=":1195282992_7" function="internal">
        <lane id=":1195282992_7_0" index="0" allow="pedestrian delivery bicycle" speed="5.56" length="9.41" shape="602.61,874.74 610.50,869.61"/>
    </edge>
    <edge id=":1195282992_8" function="internal">
        <lane id=":1195282992_8_0" index="0" allow="pedestrian delivery bicycle" speed="3.65" length="4.67" shape="602.61,874.74 604.05,874.76 604.82,875.22 604.91,876.11 604.34,877.43"/>
    </edge>
    <edge id=":1195282992_w0" function="walkingarea">
        <lane id=":1195282992_w0_0" index="0" allow="pedestrian" speed="1.00" length="6.88" width="3.20" shape="613.13,873.62 611.38,870.95 611.38,870.95 609.62,868.27 607.56,867.83 604.87,869.56 604.87,869.56 602.17,871.29 601.74,873.39 603.47,876.08 603.47,876.08 605.20,878.77"/>
    </edge>
    <edge id=":1195283008_0" function="internal">
        <lane id=":1195283008_0_0" index="0" allow="pedestrian delivery bicycle" speed="6.05" length="7.85" shape="657.22,574.89 656.73,573.50 657.14,572.02 658.44,570.43 660.65,568.73"/>
    </edge>
    <edge id=":1195283008_1" function="internal">
        <lane id=":1195283008_1_0" index="0" allow="pedestrian delivery bicycle" speed="3.65" length="4.67" shape="657.22,574.89 657.18,573.44 657.60,572.66 658.49,572.52 659.83,573.04"/>
    </edge>
    <edge id=":1195283008_2" function="internal">
        <lane id=":1195283008_2_0" index="0" disallow="tram rail_urban rail rail_electric rail_fast ship" speed="8.33" length="9.39" shape="652.78,573.86 660.65,568.73"/>
    </edge>
    <edge id=":1195283008_3" function="internal">
        <lane id=":1195283008_3_0" index="0" allow="pedestrian delivery bicycle" speed="6.19" length="7.80" shape="652.78,573.86 655.19,572.54 657.17,571.96 658.72,572.13 659.83,573.04"/>
    </edge>
    <edge id=":1195283008_w0" function="walkingarea">
        <lane id=":1195283008_w0_0" index="0" allow="pedestrian" speed="1.00" length="5.94" width="3.20" shape="655.91,575.81 658.53,573.96 658.53,573.96 661.14,572.12 661.53,570.07 659.77,567.39 651.92,572.51 653.65,575.20 655.57,575.40 655.22,575.11 654.85,574.95 654.46,574.91 654.06,574.99"/>
    </edge>
    <edge id=":1195283011_0" function="internal">
        <lane id=":1195283011_0_0" index="0" allow="pedestrian delivery bicycle" speed="5.09" length="5.05" shape="589.28,735.82 588.34,734.78 587.30,734.28 586.16,734.32 584.93,734.90"/>
    </edge>
    <edge id=":1195283011_1" function="internal">
        <lane id=":1195283011_1_0" index="0" allow="pedestrian delivery bicycle" speed="3.65" length="4.67" shape="589.28,735.82 589.26,734.37 589.70,733.59 590.58,733.47 591.92,734.01"/>
    </edge>
    <edge id=":1195283011_2" function="internal">
        <lane id=":1195283011_2_0" index="0" allow="pedestrian delivery bicycle" speed="5.03" length="5.02" shape="592.76,729.71 591.73,730.62 591.25,731.65 591.31,732.78 591.92,734.01"/>
    </edge>
    <edge id=":1195283011_3" function="internal">
        <lane id=":1195283011_3_0" index="0" disallow="tram rail_urban rail rail_electric rail_fast ship" speed="8.33" length="9.40" shape="592.76,729.71 584.93,734.90"/>
    </edge>
    <edge id=":1195283011_w0" function="walkingarea">
        <lane id=":1195283011_w0_0" index="0" allow="pedestrian" speed="1.00" length="5.92" width="3.20" shape="587.96,736.72 590.60,734.91 590.60,734.91 593.24,733.11 593.64,731.04 591.88,728.37 584.04,733.57 585.81,736.24 587.65,736.34 587.32,736.08 586.97,735.94 586.61,735.92 586.22,736.02"/>
    </edge>
    <edge id=":1199285762_0" function="internal">
        <lane id=":1199285762_0_0" index="0" disallow="tram rail_urban rail rail_electric rail_fast ship" speed="27.78" length="9.40" shape="673.01,319.21 667.91,311.31"/>
        <lane id=":1199285762_0_1" index="1" disallow="tram rail_urban rail rail_electric rail_fast ship" speed="27.78" length="9.40" shape="675.70,317.48 670.60,309.58"/>
        <lane id=":1199285762_0_2" index="2" disallow="tram rail_urban rail rail_electric rail_fast ship" speed="27.78" length="9.40" shape="678.39,315.74 673.29,307.84"/>
    </edge>
    <edge id=":1199285762_3" function="internal">
        <lane id=":1199285762_3_0" index="0" allow="pedestrian delivery bicycle" speed="6.07" length="7.77" shape="678.39,315.74 677.05,313.32 676.48,311.35 676.67,309.83 677.61,308.76"/>
    </edge>
    <edge id=":1199285762_4" function="internal">
        <lane id=":1199285762_4_0" index="0" allow="pedestrian delivery bicycle" speed="6.88" length="10.16" shape="679.32,311.46 676.78,312.61 674.48,312.68 672.42,311.67 670.60,309.58"/>
        <lane id=":1199285762_4_1" index="1" allow="pedestrian delivery bicycle" speed="6.10" length="7.77" shape="679.32,311.46 677.96,311.86 676.50,311.39 674.95,310.05 673.29,307.84"/>
    </edge>
    <edge id=":1199285762_6" function="internal">
        <lane id=":1199285762_6_0" index="0" allow="pedestrian delivery bicycle" speed="3.65" length="4.67" shape="679.32,311.46 677.88,311.43 677.12,310.97 677.02,310.08 677.61,308.76"/>
    </edge>
    <edge id=":1199285762_w0" function="walkingarea">
        <lane id=":1199285762_w0_0" index="0" allow="pedestrian" speed="1.00" length="9.24" width="3.20" shape="671.66,320.08 674.35,318.35 674.35,318.35 677.04,316.61 677.04,316.61 679.73,314.88 680.18,312.81 678.47,310.11 678.47,310.11 676.75,307.41 674.64,306.98 671.95,308.71 671.95,308.71 669.26,310.44 669.26,310.44 666.57,312.18"/>
    </edge>
    <edge id=":1199366689_0" function="internal">
        <lane id=":1199366689_0_0" index="0" allow="pedestrian delivery bicycle" speed="5.56" length="5.35" shape="412.58,681.29 407.99,684.05"/>
    </edge>
    <edge id=":1199366689_1" function="internal">
        <lane id=":1199366689_1_0" index="0" allow="pedestrian delivery bicycle" speed="3.65" length="2.34" shape="412.58,681.29 411.14,681.20 410.40,680.71"/>
    </edge>
    <edge id=":1199366689_4" function="internal">
        <lane id=":1199366689_4_0" index="0" allow="pedestrian delivery bicycle" speed="3.65" length="2.34" shape="410.40,680.71 410.34,679.82 410.98,678.52"/>
    </edge>
    <edge id=":1199366689_2" function="internal">
        <lane id=":1199366689_2_0" index="0" allow="pedestrian delivery bicycle" speed="5.56" length="5.46" shape="406.30,681.33 410.98,678.52"/>
    </edge>
    <edge id=":1199366689_3" function="internal">
        <lane id=":1199366689_3_0" index="0" allow="pedestrian delivery bicycle" speed="3.65" length="2.34" shape="406.30,681.33 407.74,681.38 408.51,681.85"/>
    </edge>
    <edge id=":1199366689_5" function="internal">
        <lane id=":1199366689_5_0" index="0" allow="pedestrian delivery bicycle" speed="3.65" length="2.34" shape="408.51,681.85 408.59,682.74 407.99,684.05"/>
    </edge>
    <edge id=":1199366689_w0" function="walkingarea">
        <lane id=":1199366689_w0_0" index="0" allow="pedestrian" speed="1.00" length="5.81" width="3.20" shape="411.23,685.78 412.90,684.69 411.23,685.78 412.90,684.69 413.38,682.68 411.78,679.91 411.78,679.91 410.18,677.14 407.70,676.69 406.02,677.78 407.46,676.79 405.85,677.97 405.46,679.98 407.15,682.69 407.15,682.69 408.84,685.41 410.89,685.35 410.54,685.09 410.17,684.97 409.77,684.99 409.33,685.14"/>