<?xml version="1.0" encoding="UTF-8"?>

<!-- generated on 2022-03-01 15:06:51 by Eclipse SUMO duarouter Version 1.9.2
<configuration xmlns:xsi="http://www.w3.org/2001/XMLSchema-instance" xsi:noNamespaceSchemaLocation="http://sumo.dlr.de/xsd/duarouterConfiguration.xsd">

    <input>
        <net-file value="./map_conversion/2022-03-01-13-07-21downtown_montreal_4.net.xml"/>
        <route-files value=".\downtown\random_rou.xml"/>
    </input>

    <output>
        <output-file value=".\downtown\random_rou.xml.tmp"/>
        <write-trips value="true"/>
    </output>

    <time>
        <begin value="0"/>
        <end value="500"/>
    </time>

    <report>
        <no-warnings value="true"/>
        <ignore-errors value="true"/>
        <no-step-log value="true"/>
    </report>

</configuration>
-->

<routes xmlns:xsi="http://www.w3.org/2001/XMLSchema-instance" xsi:noNamespaceSchemaLocation="http://sumo.dlr.de/xsd/routes_file.xsd">
    <trip id="0" depart="0.00" from="-165217827#3" to="149633802#1" />
    <trip id="1" depart="0.00" from="455083981#1" to="41258976#1" />
    <trip id="2" depart="0.00" from="-231363441#3" to="20112429#2" />
    <trip id="3" depart="0.00" from="-607184015#1" to="22080579#2" />
    <trip id="4" depart="0.00" from="-545490135" to="377233443#0" />
    <trip id="5" depart="0.00" from="-607184015#10" to="330150435#5" />
    <trip id="6" depart="0.00" from="-111771067#0" to="463825907#1" />
    <trip id="7" depart="0.00" from="165325607#1" to="-463677563" />
    <trip id="8" depart="0.00" from="165265055#4" to="-329067231#2" />
    <trip id="9" depart="0.00" from="474841415#1" to="331907686" />
    <trip id="10" depart="10.00" from="455083970#1" to="25367086#1" />
    <trip id="11" depart="11.00" from="19899374#0" to="329694552#1" />
    <trip id="12" depart="12.00" from="354710422#0" to="475694576#2" />
    <trip id="13" depart="13.00" from="453959012" to="-20112433#1" />
    <trip id="14" depart="14.00" from="146420038" to="-25366945#1" />
    <trip id="15" depart="15.00" from="-25367021#2" to="152081856" />
    <trip id="16" depart="16.00" from="19895490#0" to="19895958" />
    <trip id="19" depart="19.00" from="-463676944" to="19899276#0" />
    <trip id="20" depart="20.00" from="37852832#3" to="329694554#10" />
    <trip id="21" depart="21.00" from="473733101#2" to="463671314#1" />
    <trip id="22" depart="22.00" from="-165217829#6" to="165217829#7" />
    <trip id="23" depart="23.00" from="-546005976#6" to="607184015#0" />
    <trip id="24" depart="24.00" from="165217834#0" to="37954103#2" />
    <trip id="25" depart="25.00" from="548252185#0" to="20112443#4" />
    <trip id="26" depart="26.00" from="10509462" to="329694554#19" />
    <trip id="27" depart="27.00" from="330150435#6" to="545490135" />
    <trip id="28" depart="28.00" from="-607184015#1" to="975251638" />
    <trip id="29" depart="29.00" from="-231363441#3" to="-20112433#2" />
    <trip id="30" depart="30.00" from="36672937#1" to="463676555#7" />
    <trip id="31" depart="31.00" from="-20112443#3" to="19899276#0" />
    <trip id="32" depart="32.00" from="313639754" to="728796869#0" />
    <trip id="33" depart="33.00" from="-129811153#1" to="453964892#3" />
    <trip id="34" depart="34.00" from="329067231#0" to="134811810#2" />
    <trip id="35" depart="35.00" from="-329988460#1" to="20112434#0" />
    <trip id="37" depart="37.00" from="22080579#2" to="-465653670" />
    <trip id="40" depart="40.00" from="329067231#0" to="463671427" />
    <trip id="41" depart="41.00" from="-103935602#0" to="165257880#1" />
    <trip id="43" depart="43.00" from="165217829#4" to="-20112443#1" />
    <trip id="44" depart="44.00" from="673699710#1" to="-25367021#5" />
    <trip id="45" depart="45.00" from="-20112452" to="455084001#1" />
    <trip id="46" depart="46.00" from="-38956598#2" to="20170392#4" />
    <trip id="47" depart="47.00" from="118116148" to="48678911#7" />
    <trip id="48" depart="48.00" from="-546005976#6" to="26026751#2" />
    <trip id="49" depart="49.00" from="-545490137#1" to="165217829#4" />
    <trip id="50" depart="50.00" from="38340488" to="20112434#1" />
    <trip id="51" depart="51.00" from="-37722302#2" to="103896396#8" />
    <trip id="52" depart="52.00" from="330150736#0" to="10509460#3" />
    <trip id="53" depart="53.00" from="-20112467" to="35165799-AddedOnRampEdge" />
    <trip id="54" depart="54.00" from="546005976#7" to="474841418#0" />
    <trip id="57" depart="57.00" from="20170686#0" to="463671599" />
    <trip id="58" depart="58.00" from="-465653666#0" to="-329067231#2" />
    <trip id="59" depart="59.00" from="20112433#3" to="20112449#2" />
    <trip id="60" depart="60.00" from="41691766#1" to="884572435#2" />
    <trip id="61" depart="61.00" from="200638843#7" to="165265055#4" />
    <trip id="62" depart="62.00" from="10509475#0" to="-546005976#11" />
    <trip id="63" depart="63.00" from="20112433#2" to="152081856" />
    <trip id="64" depart="64.00" from="548252185#0" to="20112439#1" />
    <trip id="65" depart="65.00" from="329694554#10" to="-20112433#4" />
    <trip id="66" depart="66.00" from="4687641#1" to="725230629#0" />
    <trip id="67" depart="67.00" from="474841418#0" to="-465408864#3" />
    <trip id="68" depart="68.00" from="-546005976#7" to="200638843#11" />
    <trip id="69" depart="69.00" from="19899374#2" to="918602131#1" />
    <trip id="70" depart="70.00" from="463677228" to="20112443#0" />
    <trip id="71" depart="71.00" from="686625290#7" to="975251637#1" />
    <trip id="73" depart="73.00" from="792160913#0" to="329989224#2" />
    <trip id="74" depart="74.00" from="455084001#1" to="-20112443#0" />
    <trip id="75" depart="75.00" from="231387458#0" to="473733101#0" />
    <trip id="76" depart="76.00" from="725230629#0" to="-25367021#0" />
    <trip id="77" depart="77.00" from="331907543#1" to="41258974#1" />
    <trip id="78" depart="78.00" from="-36672938#7" to="508160613" />
    <trip id="79" depart="79.00" from="331907542#2" to="35165792#1" />
    <trip id="80" depart="80.00" from="330150435#6" to="25366817#0" />
    <trip id="81" depart="81.00" from="-546005976#2" to="453959012" />
    <trip id="82" depart="82.00" from="200638843#2" to="41258971#1" />
    <trip id="83" depart="83.00" from="165217834#4" to="455083993#2" />
    <trip id="84" depart="84.00" from="20112451#1" to="975251638" />
    <trip id="85" depart="85.00" from="-20170647#1" to="-725230629#0" />
    <trip id="87" depart="87.00" from="19895959#11" to="-463677569#0" />
    <trip id="88" depart="88.00" from="453959012" to="331907686" />
    <trip id="89" depart="89.00" from="39442470#1" to="-111771067#3" />
    <trip id="90" depart="90.00" from="164976438#0" to="38700726#0" />
    <trip id="91" depart="91.00" from="-430814807#2" to="-377233443#0" />
    <trip id="92" depart="92.00" from="329694554#19" to="145140490#3" />
    <trip id="94" depart="94.00" from="118116148" to="21280706#2" />
    <trip id="95" depart="95.00" from="474841415#1" to="-329067231#2" />
    <trip id="96" depart="96.00" from="133806981#1" to="-10509469#0" />
    <trip id="97" depart="97.00" from="377233442#0" to="133806981#1" />
    <trip id="98" depart="98.00" from="329694554#13" to="20112433#0" />
    <trip id="100" depart="100.00" from="329694554#0" to="465653665#1" />
    <trip id="101" depart="101.00" from="-455083994#2" to="-453957749#1" />
    <trip id="102" depart="102.00" from="546005976#3" to="463677230#1" />
    <trip id="103" depart="103.00" from="546005976#2" to="-607184015#6" />
    <trip id="104" depart="104.00" from="-25367021#5" to="463671428#0" />
    <trip id="105" depart="105.00" from="200638843#9" to="35165799" />
    <trip id="109" depart="109.00" from="465408864#3" to="48678911#1" />
    <trip id="110" depart="110.00" from="118116148" to="463676555#1" />
    <trip id="111" depart="111.00" from="4886313" to="474841415#1" />
    <trip id="112" depart="112.00" from="465416578#3" to="20112443#4" />
    <trip id="113" depart="113.00" from="463825907#1" to="104456616#2" />
    <trip id="114" depart="114.00" from="-465656094#0" to="165257880#9" />
    <trip id="115" depart="115.00" from="739538068" to="152081856" />
    <trip id="116" depart="116.00" from="200638843#4" to="8140256#1" />
    <trip id="117" depart="117.00" from="607184015#0" to="-377233443#0" />
    <trip id="118" depart="118.00" from="-465408864#3" to="686625290#12" />
    <trip id="119" depart="119.00" from="-329694555#1" to="20112433#4" />
    <trip id="120" depart="120.00" from="165217829#7" to="331907686" />
    <trip id="122" depart="122.00" from="453964892#3" to="-103935602#0" />
    <trip id="123" depart="123.00" from="329067231#0" to="453964887#0" />
    <trip id="125" depart="125.00" from="41258974#0" to="165257881#1" />
    <trip id="126" depart="126.00" from="474841418#0" to="453964892#1" />
    <trip id="127" depart="127.00" from="165217829#5" to="200638843#5" />
    <trip id="128" depart="128.00" from="152081854" to="-453957749#1" />
    <trip id="129" depart="129.00" from="607184015#10" to="41258976#1" />
    <trip id="132" depart="132.00" from="330150435#1" to="37954103#2" />
    <trip id="133" depart="133.00" from="20112439#9" to="-725230629#0" />
    <trip id="134" depart="134.00" from="546005976#4" to="463677230#0" />
    <trip id="135" depart="135.00" from="-231363441#3" to="231387458#0" />
    <trip id="136" depart="136.00" from="165265055#3" to="465413238" />
    <trip id="137" depart="137.00" from="41691766#1" to="103896396#8" />
    <trip id="138" depart="138.00" from="-165217827#1" to="111771071#2" />
    <trip id="139" depart="139.00" from="474841418#1" to="-21338774#2" />
    <trip id="140" depart="140.00" from="36672938#7" to="-546005976#3" />
    <trip id="141" depart="141.00" from="219132793#1" to="111771071#2" />
    <trip id="142" depart="142.00" from="-10509469#1" to="455083984#1" />
    <trip id="143" depart="143.00" from="-26026532#1" to="20112431#2" />
    <trip id="144" depart="144.00" from="686625291#0" to="231387458#1" />
    <trip id="145" depart="145.00" from="10509475#0" to="4687641#2" />
    <trip id="146" depart="146.00" from="465408864#0" to="39442470#1" />
    <trip id="147" depart="147.00" from="331907543#2" to="607184015#9" />
    <trip id="150" depart="150.00" from="455083994#1" to="20170392#3" />
    <trip id="151" depart="151.00" from="10509469#0" to="36672936#1" />
    <trip id="152" depart="152.00" from="25367028#2" to="35165799" />
    <trip id="154" depart="154.00" from="165217870#1" to="26026751#2" />
    <trip id="155" depart="155.00" from="-792160916#1" to="4320471#15" />
    <trip id="156" depart="156.00" from="-20112443#5" to="200638843#5" />
    <trip id="157" depart="157.00" from="20112429#2" to="-607184015#10" />
    <trip id="158" depart="158.00" from="546005976#6" to="330150434#7" />
    <trip id="159" depart="159.00" from="48678911#3" to="461254933#1" />
    <trip id="160" depart="160.00" from="-10509469#1" to="19683769#1" />
    <trip id="161" depart="161.00" from="48678911#1" to="678887672#0" />
    <trip id="163" depart="163.00" from="-607184015#10" to="-92352263#3" />
    <trip id="164" depart="164.00" from="-165217829#4" to="165265055#2" />
    <trip id="165" depart="165.00" from="200638843#8" to="-465408864#0" />
    <trip id="166" depart="166.00" from="-38956598#2" to="35165799" />
    <trip id="167" depart="167.00" from="200638843#11" to="329694554#6" />
    <trip id="168" depart="168.00" from="37954103#2" to="-455083994#2" />
    <trip id="169" depart="169.00" from="-20112433#1" to="19898458" />
    <trip id="170" depart="170.00" from="165257881#1" to="455084003#1" />
    <trip id="171" depart="171.00" from="461254932#2" to="465649965#1" />
    <trip id="172" depart="172.00" from="-219132791#2" to="-145140490#2" />
    <trip id="173" depart="173.00" from="975251638" to="165337364#7" />
    <trip id="174" depart="174.00" from="463676555#6" to="37852832#2" />
    <trip id="175" depart="175.00" from="678887672#0" to="-546005976#7" />
    <trip id="176" depart="176.00" from="-456874546#1" to="-435469623#1" />
    <trip id="177" depart="177.00" from="329988459#1" to="-92352263#1" />
    <trip id="178" depart="178.00" from="463671314#1" to="-465411709" />
    <trip id="179" depart="179.00" from="455084001#1" to="-37722302#2" />
    <trip id="180" depart="180.00" from="728796869#2" to="-354710422#1" />
    <trip id="181" depart="181.00" from="165217829#7" to="41258976#1" />
    <trip id="182" depart="182.00" from="200638843#2" to="453957749#1" />
    <trip id="183" depart="183.00" from="4320473#9" to="35165799" />
    <trip id="184" depart="184.00" from="463671429" to="4687641#9" />
    <trip id="185" depart="185.00" from="-37722302#2" to="884572434" />
    <trip id="186" depart="186.00" from="165337364#7" to="20112433#1" />
    <trip id="187" depart="187.00" from="231387460#0" to="165325605#2" />
    <trip id="188" depart="188.00" from="465649967#1" to="-329988460#1" />
    <trip id="189" depart="189.00" from="377233441#0" to="465649963#1" />
    <trip id="191" depart="191.00" from="123213513#0" to="465408858#1" />
    <trip id="192" depart="192.00" from="20178595#0" to="20112434#0" />
    <trip id="193" depart="193.00" from="121905759" to="473731043" />
    <trip id="195" depart="195.00" from="20112454#0" to="331907686" />
    <trip id="196" depart="196.00" from="-165217829#2" to="4687641#9" />
    <trip id="197" depart="197.00" from="-546005976#6" to="463677563" />
    <trip id="198" depart="198.00" from="509777718#1" to="4320473#5" />
    <trip id="199" depart="199.00" from="-111771071#2" to="607184015#6" />
    <trip id="201" depart="201.00" from="4320473#9" to="37722302#2" />
    <trip id="202" depart="202.00" from="463679894#0" to="-329067231#2" />
    <trip id="203" depart="203.00" from="435432015" to="165217827#1" />
    <trip id="204" depart="204.00" from="20170686#0" to="25367021#2" />
    <trip id="205" depart="205.00" from="455083999#1" to="165264484#1" />
    <trip id="207" depart="207.00" from="-465656094#0" to="-38956598#2" />
    <trip id="208" depart="208.00" from="463671313#1" to="-545490135" />
    <trip id="209" depart="209.00" from="21280706#2" to="454002562#1" />
    <trip id="211" depart="211.00" from="-465656094#1" to="104456616#0" />
    <trip id="212" depart="212.00" from="-133806981#1" to="25367028#0" />
    <trip id="213" depart="213.00" from="80278547#0" to="329694554#0" />
    <trip id="214" depart="214.00" from="-38340487#1" to="48678911#3" />
    <trip id="215" depart="215.00" from="4886313" to="329988459#5" />
    <trip id="216" depart="216.00" from="20112439#6" to="-474555863#1" />
    <trip id="217" depart="217.00" from="607184015#2" to="20170649#1" />
    <trip id="218" depart="218.00" from="200638843#4" to="-219132791#2" />
    <trip id="219" depart="219.00" from="-20112433#2" to="-463671429" />
    <trip id="220" depart="220.00" from="165217827#3" to="964696603#0" />
    <trip id="221" depart="221.00" from="463671314#0" to="331907686" />
    <trip id="222" depart="222.00" from="-607184015#8" to="25366817#0" />
    <trip id="223" depart="223.00" from="20112440" to="474841418#0" />
    <trip id="224" depart="224.00" from="165217829#1" to="35165799" />
    <trip id="225" depart="225.00" from="455083993#2" to="607184015#6" />
    <trip id="226" depart="226.00" from="-546005976#6" to="37997317#2" />
    <trip id="227" depart="227.00" from="-465408858#1" to="-219132791#2" />
    <trip id="228" depart="228.00" from="20112445#0" to="330150435#8" />
    <trip id="229" depart="229.00" from="-92352263#3" to="450956616#1" />
    <trip id="230" depart="230.00" from="20112445#3" to="430814807#1" />
    <trip id="231" depart="231.00" from="463677563" to="35165799" />
    <trip id="233" depart="233.00" from="37997317#2" to="545940069" />
    <trip id="234" depart="234.00" from="-20170392#2" to="-465408864#3" />
    <trip id="235" depart="235.00" from="456353760#0" to="329694555#7" />
    <trip id="236" depart="236.00" from="-37852832#0" to="430814807#1" />
    <trip id="237" depart="237.00" from="607184015#3" to="219132794#1" />
    <trip id="238" depart="238.00" from="-21338774#2" to="-165325605#2" />
    <trip id="240" depart="240.00" from="725230629#1" to="465653666#0" />
    <trip id="241" depart="241.00" from="678887672#2" to="975251638" />
    <trip id="242" depart="242.00" from="123213513#0" to="-19899281#0" />
    <trip id="243" depart="243.00" from="20170649#1" to="37852832#0" />
    <trip id="244" depart="244.00" from="-465411712#0" to="330150434#9" />
    <trip id="245" depart="245.00" from="219132791#1" to="-329067231#2" />
    <trip id="246" depart="246.00" from="165265055#2" to="399697652#1" />
    <trip id="247" depart="247.00" from="165265049#1" to="4320471#14" />
    <trip id="248" depart="248.00" from="607184015#8" to="465411709" />
    <trip id="249" depart="249.00" from="20112449#0" to="165217829#6" />
    <trip id="250" depart="250.00" from="792160913#1" to="200638843#3" />
    <trip id="251" depart="251.00" from="92352267#0" to="37997316#0" />
    <trip id="252" depart="252.00" from="20112427#5" to="-545490137#1" />
    <trip id="253" depart="253.00" from="461254933#4" to="35165799" />
    <trip id="254" depart="254.00" from="-546005976#11" to="329384217#2" />
    <trip id="255" depart="255.00" from="20112439#4" to="4320473#1" />
    <trip id="256" depart="256.00" from="80278547#0" to="331907686" />
    <trip id="257" depart="257.00" from="-463671428#1" to="329384217#8" />
    <trip id="259" depart="259.00" from="20112454#0" to="-37852832#4" />
    <trip id="260" depart="260.00" from="22072949#1" to="453959012" />
    <trip id="261" depart="261.00" from="133806980#1" to="465653665#1" />
    <trip id="262" depart="262.00" from="10509460#3" to="329694552#0" />
    <trip id="263" depart="263.00" from="548252185#0" to="231363441#1" />
    <trip id="264" depart="264.00" from="4886313" to="151554216#3" />
    <trip id="267" depart="267.00" from="330150435#8" to="975251638" />
    <trip id="268" depart="268.00" from="-455083994#2" to="26026532#1" />
    <trip id="269" depart="269.00" from="329694554#16" to="308658929#1" />
    <trip id="270" depart="270.00" from="165257880#2" to="-546005976#10" />
    <trip id="271" depart="271.00" from="329989224#1" to="10509469#0" />
    <trip id="272" depart="272.00" from="-19894751" to="455083975#0" />
    <trip id="273" depart="273.00" from="465416571#1" to="19899376#1" />
    <trip id="274" depart="274.00" from="465649965#1" to="8140256#1" />
    <trip id="275" depart="275.00" from="-165257881#2" to="219132794#2" />
    <trip id="276" depart="276.00" from="4886313" to="48680979#1" />
    <trip id="277" depart="277.00" from="308658929#2" to="20112443#3" />
    <trip id="278" depart="278.00" from="20112427#3" to="37954103#2" />
    <trip id="279" depart="279.00" from="20170647#2" to="725230629#1" />
    <trip id="280" depart="280.00" from="435469623#0" to="377233442#0" />
    <trip id="281" depart="281.00" from="475694576#3" to="474841418#0" />
    <trip id="282" depart="282.00" from="165217834#4" to="453962673" />
    <trip id="283" depart="283.00" from="4886313" to="-165217870#1" />
    <trip id="284" depart="284.00" from="366732276#1" to="546005976#3" />
    <trip id="285" depart="285.00" from="455083999#1" to="20112433#4" />
    <trip id="286" depart="286.00" from="37722302#2" to="48678911#7" />
    <trip id="289" depart="289.00" from="-455083994#2" to="25367021#2" />
    <trip id="290" depart="290.00" from="463679894#0" to="-465411712#0" />
    <trip id="291" depart="291.00" from="4886313" to="35165792#1" />
    <trip id="292" depart="292.00" from="548252185#0" to="-463670190#0" />
    <trip id="295" depart="295.00" from="-463671428#1" to="20112439#0" />
    <trip id="296" depart="296.00" from="330150435#8" to="36672937#0" />
    <trip id="297" depart="297.00" from="10509475#0" to="4687641#1" />
    <trip id="299" depart="299.00" from="329989224#2" to="329988459#5" />
    <trip id="300" depart="300.00" from="152081854" to="792160913#2" />
    <trip id="301" depart="301.00" from="133806980#2" to="329694554#6" />
    <trip id="302" depart="302.00" from="455083994#1" to="-20112433#2" />
    <trip id="304" depart="304.00" from="465408860#1" to="331907686" />
    <trip id="305" depart="305.00" from="377233441#1" to="35165799" />
    <trip id="308" depart="308.00" from="165217829#5" to="20112435#2" />
    <trip id="309" depart="309.00" from="455083975#0" to="-329067231#2" />
    <trip id="310" depart="310.00" from="455084001#1" to="-465649967#2" />
    <trip id="311" depart="311.00" from="329067231#0" to="728796869#2" />
    <trip id="312" depart="312.00" from="548252185#0" to="465649964#1" />
    <trip id="313" depart="313.00" from="465653665#1" to="20178489#3" />
    <trip id="314" depart="314.00" from="455083999#1" to="165265055#4" />
    <trip id="315" depart="315.00" from="728796869#0" to="-456874546#1" />
    <trip id="316" depart="316.00" from="48678911#7" to="454002562#1" />
    <trip id="318" depart="318.00" from="463677569#2" to="-133806981#1" />
    <trip id="319" depart="319.00" from="20112449#0" to="41258973#1" />
    <trip id="320" depart="320.00" from="330150435#6" to="465416571#1" />
    <trip id="321" depart="321.00" from="-329694555#1" to="10509469#0" />
    <trip id="322" depart="322.00" from="545490135" to="329694554#19" />
    <trip id="323" depart="323.00" from="-607184015#10" to="-20170392#4" />
    <trip id="325" depart="325.00" from="-453957749#1" to="607184015#3" />
    <trip id="326" depart="326.00" from="219132792#1" to="-329067231#2" />
    <trip id="327" depart="327.00" from="-430814807#2" to="20112442#1" />
    <trip id="328" depart="328.00" from="455083994#1" to="607184015#3" />
    <trip id="329" depart="329.00" from="455083994#1" to="-463677230#1" />
    <trip id="330" depart="330.00" from="-25367021#1" to="21280706#3" />
    <trip id="331" depart="331.00" from="680327781#0" to="-165217829#7" />
    <trip id="332" depart="332.00" from="20112440" to="607184015#9" />
    <trip id="333" depart="333.00" from="-25367021#1" to="430814807#1" />
    <trip id="334" depart="334.00" from="883378245" to="19892255#3" />
    <trip id="335" depart="335.00" from="-465649967#2" to="-40325362#0" />
    <trip id="336" depart="336.00" from="20112445#3" to="38343538" />
    <trip id="338" depart="338.00" from="10509460#3" to="-435469623#0" />
    <trip id="339" depart="339.00" from="-20112452" to="461254932#4" />
    <trip id="340" depart="340.00" from="-546005976#9" to="48678911#4" />
    <trip id="342" depart="342.00" from="48678911#4" to="-463671428#0" />
    <trip id="343" depart="343.00" from="10509475#0" to="-465649967#2" />
    <trip id="344" depart="344.00" from="-165217827#3" to="-133806981#1" />
    <trip id="345" depart="345.00" from="103896396#8" to="165257880#1" />
    <trip id="346" depart="346.00" from="-20112433#2" to="455083968#1" />
    <trip id="347" depart="347.00" from="455083999#1" to="20170647#2" />
    <trip id="348" depart="348.00" from="25367003#1" to="-354710423#1" />
    <trip id="349" depart="349.00" from="607184015#8" to="-20112433#0" />
    <trip id="350" depart="350.00" from="4886313" to="23920574#1" />
    <trip id="351" depart="351.00" from="728796869#2" to="-20112467" />
    <trip id="352" depart="352.00" from="200638843#5" to="430814807#1" />
    <trip id="353" depart="353.00" from="546047308#1" to="-219132791#2" />
    <trip id="355" depart="355.00" from="37722302#2" to="329384217#1" />
    <trip id="356" depart="356.00" from="975251637#0" to="25367021#2" />
    <trip id="358" depart="358.00" from="48678911#1" to="37723610#0" />
    <trip id="360" depart="360.00" from="-725230629#0" to="165265055#4" />
    <trip id="361" depart="361.00" from="20112429#2" to="-329067231#2" />
    <trip id="362" depart="362.00" from="41258974#1" to="19895959#12" />
    <trip id="363" depart="363.00" from="548252185#0" to="-20170686#0" />
    <trip id="364" depart="364.00" from="-231363441#3" to="-329067231#2" />
    <trip id="365" depart="365.00" from="465416571#1" to="329694554#1" />
    <trip id="366" depart="366.00" from="329694555#4" to="165257881#1" />
    <trip id="367" depart="367.00" from="19892255#0" to="38956598#3" />
    <trip id="368" depart="368.00" from="4886313" to="454002561#0" />
    <trip id="369" depart="369.00" from="337432401#3" to="19683769#0" />
    <trip id="370" depart="370.00" from="-546005976#7" to="37954103#4" />
    <trip id="371" depart="371.00" from="-329694555#1" to="4687641#1" />
    <trip id="372" depart="372.00" from="463671313#1" to="329988459#5" />
    <trip id="373" depart="373.00" from="473733101#4" to="77688246" />
    <trip id="375" depart="375.00" from="548252185#0-AddedOffRampEdge" to="465649963#1" />
    <trip id="376" depart="376.00" from="-465411710#0" to="4320473#9" />
    <trip id="377" depart="377.00" from="165325607#0" to="-10509475#0" />
    <trip id="378" depart="378.00" from="329988459#4" to="200638843#11" />
    <trip id="379" depart="379.00" from="37722302#2" to="-165217829#5" />
    <trip id="380" depart="380.00" from="-546005976#8" to="20112427#6" />
    <trip id="381" depart="381.00" from="19895959#12" to="454002561#0" />
    <trip id="382" depart="382.00" from="329988459#5" to="-25367021#5" />
    <trip id="383" depart="383.00" from="-463671428#0" to="347395409#1" />
    <trip id="384" depart="384.00" from="133806980#1" to="38340488" />
    <trip id="385" depart="385.00" from="20112439#9" to="146420038" />
    <trip id="386" depart="386.00" from="-329988460#1" to="20112433#2" />
    <trip id="387" depart="387.00" from="4320471#1" to="20178595#0" />
    <trip id="388" depart="388.00" from="-19899281#0" to="200638835#2" />
    <trip id="390" depart="390.00" from="-435469623#0" to="121905759" />
    <trip id="391" depart="391.00" from="-111771067#4" to="455083980#0" />
    <trip id="392" depart="392.00" from="19899374#2" to="435432015" />
    <trip id="393" depart="393.00" from="466666376" to="465408857#1" />
    <trip id="395" depart="395.00" from="548252185#0" to="475694576#2" />
    <trip id="396" depart="396.00" from="329989224#2-AddedOffRampEdge" to="453949528" />
    <trip id="397" depart="397.00" from="-354710422#0" to="-152081854" />
    <trip id="398" depart="398.00" from="465408864#0" to="347395409#1" />
    <trip id="399" depart="399.00" from="548252185#0" to="-26026532#1" />
    <trip id="400" depart="400.00" from="10509460#2" to="330150435#5" />
    <trip id="401" depart="401.00" from="200638843#2" to="165217829#2" />
    <trip id="402" depart="402.00" from="165265055#2" to="-465411710#0" />
    <trip id="403" depart="403.00" from="-329988460#2" to="231363441#1" />
    <trip id="405" depart="405.00" from="465416576#1" to="10509469#1" />
    <trip id="406" depart="406.00" from="-466666376" to="331907543#2" />
    <trip id="407" depart="407.00" from="39442470#1" to="-465653666#0" />
    <trip id="408" depart="408.00" from="219132793#1" to="455083994#1" />
    <trip id="409" depart="409.00" from="20112443#3" to="546005976#6" />
    <trip id="410" depart="410.00" from="377233441#0" to="35165799" />
    <trip id="411" depart="411.00" from="36672937#1" to="-463673045" />
    <trip id="412" depart="412.00" from="20112439#9" to="162975557" />
    <trip id="413" depart="413.00" from="-20112433#4" to="231363441#1" />
    <trip id="414" depart="414.00" from="20112445#0" to="-20112443#0" />
    <trip id="415" depart="415.00" from="-20178489#0" to="48678911#1" />
    <trip id="417" depart="417.00" from="329694554#2" to="463676555#6" />
    <trip id="419" depart="419.00" from="165257880#10" to="20170392#4" />
    <trip id="420" depart="420.00" from="-20112443#0" to="-329988460#1" />
    <trip id="421" depart="421.00" from="165337364#13" to="453957749#1" />
    <trip id="423" depart="423.00" from="20112439#6" to="25366817#0" />
    <trip id="425" depart="425.00" from="165325605#2" to="330153472#2" />
    <trip id="426" depart="426.00" from="37997317#2" to="-20170649#1" />
    <trip id="429" depart="429.00" from="165265055#2" to="330150434#5" />
    <trip id="430" depart="430.00" from="19683769#1" to="725230629#0" />
    <trip id="431" depart="431.00" from="200638843#1" to="330150736#0" />
    <trip id="432" depart="432.00" from="165217829#5" to="19895959#6" />
    <trip id="433" depart="433.00" from="465416573#1" to="399697652#1" />
    <trip id="434" depart="434.00" from="455083983#2" to="430814807#0" />
    <trip id="435" depart="435.00" from="37997316#0" to="20112431#2" />
    <trip id="436" depart="436.00" from="19892255#7" to="-465656094#0" />
    <trip id="437" depart="437.00" from="673699710#1" to="20178595#0" />
    <trip id="438" depart="438.00" from="-435469623#0" to="-219132792#1" />
    <trip id="439" depart="439.00" from="-25367021#2" to="461254935#1" />
    <trip id="440" depart="440.00" from="545490135" to="-165325605#0" />
    <trip id="441" depart="441.00" from="463671314#1" to="-453959012" />
    <trip id="442" depart="442.00" from="-463673045" to="465649965#1" />
    <trip id="443" depart="443.00" from="465413240#0" to="-465408864#0" />
    <trip id="444" depart="444.00" from="20112427#4" to="41258976#1" />
    <trip id="446" depart="446.00" from="20112443#3" to="25367028#0" />
    <trip id="447" depart="447.00" from="465413240#0" to="20112451#1" />
    <trip id="448" depart="448.00" from="19895959#0" to="607184015#3" />
    <trip id="450" depart="450.00" from="313629696" to="686625291#0" />
    <trip id="451" depart="451.00" from="465408864#0" to="-456353760#0" />
    <trip id="452" depart="452.00" from="37954103#1" to="48680979#1" />
    <trip id="453" depart="453.00" from="-25367021#5" to="4687641#1" />
    <trip id="454" depart="454.00" from="145140490#0" to="461254932#2" />
    <trip id="455" depart="455.00" from="546005976#7" to="-463671428#1" />
    <trip id="456" depart="456.00" from="607184015#9" to="103896396#1" />
    <trip id="457" depart="457.00" from="19683769#1" to="-165217829#1" />