<?xml version="1.0" encoding="UTF-8"?>

<!-- generated on 2022-03-28 10:50:54 by Eclipse SUMO polyconvert Version 1.9.2
<configuration xmlns:xsi="http://www.w3.org/2001/XMLSchema-instance" xsi:noNamespaceSchemaLocation="http://sumo.dlr.de/xsd/polyconvertConfiguration.xsd">

    <input>
        <net-file value="concordia_sgw_region.net.xml"/>
        <osm-files value="concordia_sgw_region.osm"/>
        <osm.keep-full-type value="true"/>
        <type-file value="osmPolyconvert.typ.xml"/>
    </input>

    <output>
        <output-file value="concordia_sgw_region.poly.xml"/>
    </output>

    <processing>
        <poi-layer-offset value="5"/>
    </processing>

</configuration>
-->

<additional xmlns:xsi="http://www.w3.org/2001/XMLSchema-instance" xsi:noNamespaceSchemaLocation="http://sumo.dlr.de/xsd/additional_file.xsd">
    <location netOffset="-610603.04,-5038394.91" convBoundary="-5806.44,-4922.84,3624.25,11855.53" origBoundary="-73.659620,45.446238,-73.535420,45.596409" projParameter="+proj=utm +zone=18 +ellps=WGS84 +datum=WGS84 +units=m +no_defs"/>

    <poly id="103248048" type="building.yes" color="255,230,230" fill="1" layer="-1.00" shape="540.639818,680.145346 542.541282,679.134388 544.176640,681.674921 548.830866,679.245787 543.689333,670.797646 538.031247,661.506876 532.028902,665.034570 531.468265,665.358035 540.639818,680.145346"/>
    <poly id="103248049" type="building.university" color="255,230,230" fill="1" layer="-1.00" shape="472.003351,548.550904 465.332840,540.809241 476.803640,532.132875 478.239313,534.036404 481.417241,532.003387 479.362204,529.766613 491.262240,520.686684 496.434603,527.846197 499.448100,532.011402 499.218652,533.051974 477.972155,545.155915 472.658541,548.184654 472.003351,548.550904"/>
    <poly id="103248050" type="building.retail" color="255,230,230" fill="1" layer="-1.00" shape="423.659154,395.901311 450.453294,374.638107 520.265912,463.345233 523.751520,467.774411 528.213422,464.297218 532.716254,464.688122 536.272707,469.529748 502.866418,495.209676 500.266710,491.951959 493.454061,483.407606 488.201305,476.813444 473.069514,457.842221 423.659154,395.901311"/>
    <poly id="103248051" type="building.yes" color="255,230,230" fill="1" layer="-1.00" shape="556.995768,738.945696 559.969104,736.986889 562.863131,735.093356 561.987456,733.788720 547.003092,711.397048 544.875925,713.237491 547.470952,718.517740 544.753927,720.125473 556.995768,738.945696"/>
    <poly id="103248052" type="building.yes" color="255,230,230" fill="1" layer="-1.00" shape="465.273741,674.421316 452.801862,656.652964 456.399863,654.727388 458.737899,658.636134 459.794105,658.132509 462.554049,662.048723 463.830452,661.026679 470.060776,670.227489 472.075352,669.007362 476.887020,676.227159 477.998636,677.891578 470.477341,682.459303 469.970575,681.505717 465.273741,674.421316"/>
    <poly id="103248053" type="amenity.university" color="237,199,199" fill="1" layer="-1.00" shape="728.308660,404.754336 618.528611,235.232988 369.159943,428.976900 401.777571,470.850087 430.826605,446.692830 444.346956,434.829858 505.046565,511.128932 467.784027,537.885418 459.606499,543.752895 441.536640,522.540462 379.958800,566.581576 408.211083,605.110377 371.281295,630.784206 303.637430,662.594343 306.779248,667.461849 342.404471,722.623657 314.661826,740.169835 315.165861,741.278943 335.210039,772.372155 341.143687,782.001002 332.589251,787.550800 361.890032,829.943108 358.230397,832.267717 380.788502,866.572791 482.990719,802.513681 491.033496,797.177288 562.067240,747.814910 535.692161,708.851847 547.370794,701.668455 550.824878,699.484782 540.357636,684.163302 526.269363,662.354328 474.641360,694.035094 450.546373,653.379130 500.164071,621.362515 524.777890,658.749488 575.321567,625.660765 517.750333,537.880893 513.797898,532.009858 595.097506,487.908237 607.552891,480.583122 616.730500,475.189193 658.464402,450.657662 667.744659,445.210058 728.308660,404.754336"/>
    <poly id="103248054" type="amenity.place_of_worship" color="237,199,199" fill="1" layer="-1.00" shape="563.296355,714.608410 568.305754,715.952936 569.704020,719.522797 574.776201,717.323350 580.063225,726.818733 588.527832,721.945572 586.289502,718.149672 588.623894,716.524063 589.848536,718.423883 597.055585,713.950749 593.389474,708.251427 598.017174,705.555144 603.126794,702.567350 601.506563,699.615884 608.706160,695.564930 598.291637,679.922002 590.862571,685.013537 589.419684,683.521037 591.754089,681.895429 590.027885,679.631103 587.866172,676.803403 582.134910,680.469210 585.187353,685.957616 586.456489,685.346654 587.469986,687.253844 581.953625,690.701196 579.308662,686.475796 572.963582,689.497287 571.121357,687.164231 574.928366,685.353557 572.268104,681.550188 573.540979,680.728140 572.312191,679.061627 570.266683,676.291558 568.353858,677.502342 565.690381,674.321255 545.974406,686.518748 558.819853,707.005520 561.150503,705.590985 562.375155,707.490798 561.268961,710.816256 563.296355,714.608410"/>
    <poly id="103248055" type="building.yes" color="255,230,230" fill="1" layer="-1.00" shape="376.770042,433.101076 400.831806,412.522820 403.743388,413.618951 405.715584,414.798486 408.405543,416.935333 409.528183,418.422123 431.898126,445.767172 404.131755,468.991383 376.770042,433.101076"/>
    <poly id="103248056" type="building.apartments" color="255,230,230" fill="1" layer="-1.00" shape="472.075352,669.007362 460.040335,650.402130 476.999207,639.422464 480.919366,645.348472 493.844139,664.903000 476.887020,676.227159 472.075352,669.007362"/>
    <poly id="103248058" type="building.yes" color="255,230,230" fill="1" layer="-1.00" shape="502.470242,495.513830 518.920370,515.942068 522.091164,519.609980 527.737624,515.442523 528.652855,516.281101 534.757527,510.954885 535.373883,511.899303 541.541409,506.996506 542.257370,508.053820 548.102787,503.245343 548.713435,504.511942 554.557089,499.803457 555.167737,501.070056 560.798805,496.891242 561.508919,497.837323 568.006078,492.418073 544.410409,463.272701 536.272707,469.529748 502.866418,495.209676 502.470242,495.513830"/>
    <poly id="103248059" type="building.yes" color="255,230,230" fill="1" layer="-1.00" shape="547.003092,711.397048 542.998135,704.969401 549.028750,701.608916 559.576177,717.254114 560.862446,716.999071 569.784599,730.415097 568.660774,731.206447 570.088892,733.532166 567.981938,734.672832 566.159010,735.662947 563.639283,732.751121 561.987456,733.788720 547.003092,711.397048"/>
    <poly id="103248061" type="building.yes" color="255,230,230" fill="1" layer="-1.00" shape="523.625865,457.214715 534.108975,450.921393 516.040628,423.440974 510.846206,426.794076 484.689718,394.369693 476.304321,400.489075 502.960133,434.289177 506.571256,431.630392 523.625865,457.214715"/>
    <poly id="103248062" type="building.apartments" color="255,230,230" fill="1" layer="-1.00" shape="493.844139,664.903000 517.483410,650.063210 504.095729,630.611567 480.919366,645.348472 493.844139,664.903000"/>
    <poly id="103248063" type="building.construction" color="255,230,230" fill="1" layer="-1.00" shape="562.530475,662.985448 552.930088,649.023994 553.641540,648.569844 570.951395,637.641095 571.416192,638.316117 574.158286,642.354310 576.854481,646.336126 580.144946,651.184183 562.530475,662.985448"/>
    <poly id="103248064" type="building.university" color="255,230,230" fill="1" layer="-1.00" shape="466.631677,632.582199 475.119610,627.275885 476.653096,629.392296 501.052662,613.110079 524.418340,649.041358 542.635431,636.750569 562.608578,623.279606 538.003062,587.192867 525.632032,595.508674 520.938337,588.246478 523.703668,586.561796 523.209294,584.908299 532.152589,578.609940 515.629116,554.390783 512.856281,550.318734 502.104358,556.796250 500.563850,557.724706 499.636928,556.663662 472.073997,574.145684 447.467484,590.635503 449.602407,594.540649 446.759952,596.168432 443.525999,598.278266 466.631677,632.582199"/>
    <poly id="103248065" type="building.yes" color="255,230,230" fill="1" layer="-1.00" shape="538.031247,661.506876 544.613069,657.033722 550.932063,666.958540 543.689333,670.797646 538.031247,661.506876"/>
    <poly id="103248570" type="amenity.clinic" color="237,199,199" fill="1" layer="-1.00" shape="264.901970,494.112986 272.990946,487.499118 285.164097,477.545696 286.377872,471.221555 282.161804,466.101708 276.375617,458.720389 273.573060,454.992436 248.689161,475.245472 264.901970,494.112986"/>
    <poly id="103248570#1" type="building.yes" color="255,230,230" fill="1" layer="-1.00" shape="264.901970,494.112986 272.990946,487.499118 285.164097,477.545696 286.377872,471.221555 282.161804,466.101708 276.375617,458.720389 273.573060,454.992436 248.689161,475.245472 264.901970,494.112986"/>
    <poly id="103248571" type="landuse.commercial" color="209,209,204" fill="1" layer="-3.00" shape="449.270511,706.043887 474.996375,689.873955 469.970575,681.505717 465.273741,674.421316 450.546373,653.379130 434.442220,663.762766 435.880671,668.600202 446.670686,699.263325 449.270511,706.043887"/>
    <poly id="103248572" type="amenity.atm" color="237,199,199" fill="1" layer="-1.00" shape="474.996375,689.873955 522.932267,658.372299 500.164071,621.362515 450.546373,653.379130 465.273741,674.421316 469.970575,681.505717 474.996375,689.873955"/>
    <poly id="103248572#1" type="shop.convenience" color="237,199,255" fill="1" layer="-1.00" shape="474.996375,689.873955 522.932267,658.372299 500.164071,621.362515 450.546373,653.379130 465.273741,674.421316 469.970575,681.505717 474.996375,689.873955"/>
    <poly id="103248591" type="building.yes" color="255,230,230" fill="1" layer="-1.00" shape="373.417882,658.904847 384.651994,652.102255 384.988492,650.752405 374.182866,633.324856 369.563843,633.765491 353.494791,641.727293 355.481979,644.707405 365.341725,659.495499 371.289828,656.377876 373.417882,658.904847"/>
    <poly id="103521738" type="building.yes" color="255,230,230" fill="1" layer="-1.00" shape="596.755233,737.516390 623.594497,718.955236 637.160526,738.454769 620.924097,749.680186 618.553897,746.270896 607.951097,753.606579 596.755233,737.516390"/>
    <poly id="103521739" type="building.yes" color="255,230,230" fill="1" layer="-1.00" shape="523.434154,824.222465 519.918405,818.859241 522.132400,817.409288 514.286732,805.434869 512.515770,806.581503 507.227177,798.497517 516.556682,792.439359 528.465700,810.631302 533.826455,807.136699 521.620411,788.506073 531.740887,781.917401 537.440349,790.631020 535.479701,791.896532 542.883804,803.207481 544.615315,802.082384 548.458353,807.940397 523.434154,824.222465"/>
    <poly id="103521740" type="building.yes" color="255,230,230" fill="1" layer="-1.00" shape="637.160526,738.454769 643.196901,747.996832 615.208911,765.670717 607.951097,753.606579 618.553897,746.270896 620.924097,749.680186 637.160526,738.454769"/>
    <poly id="103521742" type="building.yes" color="255,230,230" fill="1" layer="-1.00" shape="627.547829,671.850035 614.259356,653.877950 641.084180,635.272150 644.819082,632.682318 658.100493,651.932355 657.253255,652.550783 647.711663,658.649435 640.719409,662.904058 627.547829,671.850035"/>
    <poly id="103521746" type="building.yes" color="255,230,230" fill="1" layer="-1.00" shape="830.424439,663.558161 792.256845,605.214418 831.715508,578.965567 851.748553,607.937681 850.768661,608.542614 828.857534,621.956045 829.871167,623.852166 827.754932,625.070375 828.644618,626.464203 846.751603,652.979441 830.424439,663.558161"/>
    <poly id="103521747" type="building.yes" color="255,230,230" fill="1" layer="-1.00" shape="679.453703,753.251636 683.252728,758.942257 685.135674,758.975649 710.604543,741.457419 706.719981,735.743038 679.453703,753.251636"/>
    <poly id="103521748" type="building.yes" color="255,230,230" fill="1" layer="-1.00" shape="614.259356,653.877950 609.816100,647.486944 605.845441,641.771106 604.458286,639.779499 602.194661,636.527690 600.761608,634.479705 598.269488,630.890455 597.553158,629.855353 596.777865,628.619171 592.594316,622.566175 647.854438,586.227645 659.044868,579.269171 677.550646,606.702237 639.177089,631.748819 641.084180,635.272150 614.259356,653.877950"/>
    <poly id="103521750" type="building.yes" color="255,230,230" fill="1" layer="-1.00" shape="638.761740,690.452166 626.930723,672.272510 627.547829,671.850035 640.719409,662.904058 646.024371,670.943994 653.028373,666.467323 647.711663,658.649435 657.253255,652.550783 669.103268,670.097385 638.761740,690.452166"/>
    <poly id="103521754" type="building.yes" color="255,230,230" fill="1" layer="-1.00" shape="594.561001,579.059762 593.434558,577.350607 596.929759,575.056553 593.846876,570.401090 582.555859,577.746856 568.983553,586.808102 568.352194,587.152538 572.561533,593.517140 573.415402,592.965497 594.561001,579.059762"/>
    <poly id="103521757" type="building.yes" color="255,230,230" fill="1" layer="-1.00" shape="573.415402,592.965497 594.561001,579.059762 597.800075,577.105678 607.600219,591.704188 586.400785,605.119947 584.299553,605.493904 583.226444,605.185950 582.005670,604.830928 579.734027,602.912562 573.415402,592.965497"/>
    <poly id="103521759" type="amenity.university" color="237,199,199" fill="1" layer="-1.00" shape="562.343172,576.933143 559.647949,578.630163 533.310707,537.045118 549.608319,526.798504 555.868307,522.853087 577.319542,509.352775 581.856372,506.499283 604.118306,541.644494 596.815136,546.238166 600.898085,552.678339 576.151205,568.242791 562.343172,576.933143"/>
    <poly id="103521759#1" type="building.yes" color="255,230,230" fill="1" layer="-1.00" shape="562.343172,576.933143 559.647949,578.630163 533.310707,537.045118 549.608319,526.798504 555.868307,522.853087 577.319542,509.352775 581.856372,506.499283 604.118306,541.644494 596.815136,546.238166 600.898085,552.678339 576.151205,568.242791 562.343172,576.933143"/>
    <poly id="103521760" type="building.yes" color="255,230,230" fill="1" layer="-1.00" shape="568.983553,586.808102 562.343172,576.933143 576.151205,568.242791 582.555859,577.746856 568.983553,586.808102"/>
    <poly id="103521763" type="building.yes" color="255,230,230" fill="1" layer="-1.00" shape="715.058878,738.402526 726.946081,730.045169 709.828558,702.369841 696.675930,711.127087 715.058878,738.402526"/>
    <poly id="103521764" type="building.yes" color="255,230,230" fill="1" layer="-1.00" shape="751.113551,712.326198 737.672296,692.417437 751.323217,684.213659 764.309783,703.758761 751.113551,712.326198"/>
    <poly id="103521765" type="building.yes" color="255,230,230" fill="1" layer="-1.00" shape="690.190395,710.167465 706.719981,735.743038 679.453703,753.251636 662.416930,728.067216 690.190395,710.167465"/>
    <poly id="103521766" type="building.yes" color="255,230,230" fill="1" layer="-1.00" shape="672.835696,683.954974 690.190395,710.167465 662.416930,728.067216 645.880449,702.869492 672.835696,683.954974"/>
    <poly id="103521768" type="building.yes" color="255,230,230" fill="1" layer="-1.00" shape="764.309783,703.758761 771.306025,699.282082 758.433388,679.483385 751.323217,684.213659 764.309783,703.758761"/>
    <poly id="103522207" type="building.yes" color="255,230,230" fill="1" layer="-1.00" shape="332.513405,576.089015 354.458466,559.373888 351.112453,555.002840 342.843083,544.410312 324.557770,521.216287 322.916452,522.543076 308.075675,534.405187 304.765335,536.858249 318.358599,553.568129 318.288499,557.534272 332.513405,576.089015"/>
    <poly id="103522208" type="building.yes" color="255,230,230" fill="1" layer="-1.00" shape="278.444636,513.255650 288.073364,525.216793 295.739581,519.084461 308.075675,534.405187 322.916452,522.543076 316.033480,513.986566 312.416697,509.455171 308.762413,504.834211 302.898947,497.407047 301.155586,495.220294 282.678012,509.874269 278.444636,513.255650"/>
    <poly id="103522209" type="building.yes" color="255,230,230" fill="1" layer="-1.00" shape="363.205313,613.682777 353.906567,619.763935 353.294474,619.019646 346.699915,610.957173 344.669328,612.199282 334.443241,599.116171 336.243599,597.192088 330.776207,591.683350 331.894585,582.356988 356.796668,564.605056 366.450963,576.433423 369.992677,580.785715 375.768315,587.866888 382.645666,596.290013 385.055361,599.244267 363.205313,613.682777"/>
    <poly id="103892924" type="building.yes" color="255,230,230" fill="1" layer="-1.00" shape="794.059405,586.442970 821.845432,568.332843 816.540399,560.303867 818.449441,558.870826 816.155822,555.551726 805.236843,539.721682 802.097427,535.176240 799.984916,536.183376 795.704529,529.428394 773.890123,541.787989 771.833218,539.662213 766.738544,543.116894 773.663652,554.108447 794.059405,586.442970"/>
    <poly id="103892925" type="amenity.public_building" color="237,199,199" fill="1" layer="-1.00" shape="636.325787,568.175585 638.387899,566.923014 639.043688,566.523452 642.677976,564.320794 632.274525,548.044566 625.714911,551.695655 628.974273,556.976597 636.325787,568.175585"/>
    <poly id="103892925#1" type="building.yes" color="255,230,230" fill="1" layer="-1.00" shape="636.325787,568.175585 638.387899,566.923014 639.043688,566.523452 642.677976,564.320794 632.274525,548.044566 625.714911,551.695655 628.974273,556.976597 636.325787,568.175585"/>
    <poly id="103892926" type="building.yes" color="255,230,230" fill="1" layer="-1.00" shape="362.097594,734.229445 359.901004,735.579744 355.600398,728.624678 351.017739,731.433063 351.557146,732.309423 354.014376,736.109106 356.060748,734.856166 357.375479,736.968680 355.139236,738.351619 361.995677,749.274811 368.806366,745.105581 362.097594,734.229445"/>
    <poly id="103892927" type="building.yes" color="255,230,230" fill="1" layer="-1.00" shape="382.039624,852.836869 379.161726,854.708540 376.101971,856.699241 363.238349,837.668346 368.972527,833.380064 382.039624,852.836869"/>
    <poly id="103892928" type="building.yes" color="255,230,230" fill="1" layer="-1.00" shape="375.030252,741.414958 368.806366,745.105581 362.097594,734.229445 367.994517,730.466355 375.030252,741.414958"/>
    <poly id="103892929" type="building.yes" color="255,230,230" fill="1" layer="-1.00" shape="348.571485,758.839223 342.176640,763.360332 334.503475,750.889113 329.891903,743.839663 327.303061,739.526461 331.153546,737.460808 333.220567,740.786833 336.175846,738.960960 340.743441,746.287465 348.571485,758.839223"/>
    <poly id="103892930" type="building.yes" color="255,230,230" fill="1" layer="-1.00" shape="406.008923,836.957891 399.286464,825.981447 396.327126,827.596069 391.224935,819.571048 389.817916,820.468550 387.407058,822.003972 392.631901,830.164517 399.856902,841.449897 403.008117,839.149658 406.008923,836.957891"/>
    <poly id="103892931" type="building.yes" color="255,230,230" fill="1" layer="-1.00" shape="355.159460,754.888303 355.751591,755.876728 352.568361,757.776353 349.037429,759.892094 348.571485,758.839223 340.743441,746.287465 347.489256,742.250423 355.159460,754.888303"/>
    <poly id="103892933" type="building.yes" color="255,230,230" fill="1" layer="-1.00" shape="425.325631,707.698348 417.312855,695.432166 415.945068,696.319245 410.237734,687.594494 405.557331,690.623373 411.667759,699.977586 419.277254,711.625404 425.325631,707.698348"/>
    <poly id="103892933#1" type="landuse.commercial" color="209,209,204" fill="1" layer="-3.00" shape="425.325631,707.698348 417.312855,695.432166 415.945068,696.319245 410.237734,687.594494 405.557331,690.623373 411.667759,699.977586 419.277254,711.625404 425.325631,707.698348"/>
    <poly id="103892934" type="building.yes" color="255,230,230" fill="1" layer="-1.00" shape="339.196287,794.013198 352.899664,814.181310 360.701831,809.185007 356.388709,802.940957 352.628881,797.229009 351.490256,797.975682 345.964553,789.587593 342.050564,792.152203 339.196287,794.013198"/>
    <poly id="103892935" type="building.yes" color="255,230,230" fill="1" layer="-1.00" shape="388.295376,716.545016 381.084603,720.796055 388.717370,732.455360 395.393355,727.950381 388.295376,716.545016"/>
    <poly id="103892936" type="building.yes" color="255,230,230" fill="1" layer="-1.00" shape="413.831133,715.085255 407.781985,719.056761 407.538844,718.663500 400.750798,707.852598 406.836265,704.037312 413.831133,715.085255"/>
    <poly id="103892938" type="building.yes" color="255,230,230" fill="1" layer="-1.00" shape="399.856902,841.449897 396.779543,843.551408 393.702186,845.652921 386.337922,834.287293 382.671653,829.032618 386.275037,826.795934 389.534441,832.076753 392.631901,830.164517 399.856902,841.449897"/>
    <poly id="103892939" type="building.yes" color="255,230,230" fill="1" layer="-1.00" shape="407.538844,718.663500 401.560808,722.591817 394.874916,711.749389 400.750798,707.852598 407.538844,718.663500"/>
    <poly id="103892941" type="building.yes" color="255,230,230" fill="1" layer="-1.00" shape="762.608209,480.776657 760.884640,477.923334 758.530891,474.025307 748.149154,480.320060 752.020373,487.234443 762.608209,480.776657"/>
    <poly id="103892942" type="building.yes" color="255,230,230" fill="1" layer="-1.00" shape="381.084603,720.796055 374.648712,724.983014 375.556072,726.265957 382.202568,736.685368 388.717370,732.455360 381.084603,720.796055"/>
    <poly id="103892947" type="amenity.public_building" color="237,199,199" fill="1" layer="-1.00" shape="673.023848,543.754943 668.321873,536.525825 660.371045,524.304879 637.919322,542.210206 648.468626,545.408867 655.111406,555.584019 658.156163,553.570954 662.640081,550.616564 664.759655,549.209436 667.108376,547.661900 673.023848,543.754943"/>
    <poly id="103892947#1" type="building.yes" color="255,230,230" fill="1" layer="-1.00" shape="673.023848,543.754943 668.321873,536.525825 660.371045,524.304879 637.919322,542.210206 648.468626,545.408867 655.111406,555.584019 658.156163,553.570954 662.640081,550.616564 664.759655,549.209436 667.108376,547.661900 673.023848,543.754943"/>
    <poly id="103892948" type="amenity.public_building" color="237,199,199" fill="1" layer="-1.00" shape="629.751092,572.237588 636.325787,568.175585 628.974273,556.976597 621.785731,560.394280 629.751092,572.237588"/>
    <poly id="103892948#1" type="building.yes" color="255,230,230" fill="1" layer="-1.00" shape="629.751092,572.237588 636.325787,568.175585 628.974273,556.976597 621.785731,560.394280 629.751092,572.237588"/>
    <poly id="103892950" type="building.university" color="255,230,230" fill="1" layer="-1.00" shape="582.631685,427.443091 570.592749,409.048739 601.967072,389.134198 611.379592,402.247784 625.453487,405.042105 628.120082,408.934509 623.625182,411.622016 611.686745,408.732183 597.738995,417.786726 598.911305,419.996784 592.554732,423.651509 590.904559,421.944189 582.631685,427.443091"/>
    <poly id="103892951" type="amenity.public_building" color="237,199,199" fill="1" layer="-1.00" shape="642.677976,564.320794 646.692426,561.835936 647.553725,561.306661 649.750637,559.945351 642.213192,548.654146 637.919322,542.210206 637.835541,542.086476 631.471779,546.152217 632.274525,548.044566 642.677976,564.320794"/>
    <poly id="103892951#1" type="building.yes" color="255,230,230" fill="1" layer="-1.00" shape="642.677976,564.320794 646.692426,561.835936 647.553725,561.306661 649.750637,559.945351 642.213192,548.654146 637.919322,542.210206 637.835541,542.086476 631.471779,546.152217 632.274525,548.044566 642.677976,564.320794"/>
    <poly id="103892952" type="building.yes" color="255,230,230" fill="1" layer="-1.00" shape="762.608209,480.776657 752.020373,487.234443 750.953541,487.893415 752.558979,491.678143 748.744310,493.910879 747.324010,491.585258 738.640393,496.443220 742.502490,502.990702 767.103176,487.335385 762.608209,480.776657"/>
    <poly id="103892955" type="building.yes" color="255,230,230" fill="1" layer="-1.00" shape="746.644527,447.065071 741.557222,438.206545 729.691737,445.308490 729.155742,440.275843 731.475490,439.483509 733.813766,437.646870 735.319748,435.584316 735.989368,433.084626 736.033713,430.584956 735.442142,428.685227 734.228519,426.163241 731.531378,424.437309 728.405145,423.548366 725.467280,423.496251 722.932818,424.495928 719.961975,426.743650 719.070038,429.439435 718.592865,432.987175 719.169858,435.709016 720.605287,437.623711 717.386440,441.956305 710.649473,431.801647 698.261695,438.827708 692.434884,442.136108 682.263802,448.012405 697.965421,473.162051 709.619855,466.056305 711.451064,469.011540 715.015507,466.785456 746.644527,447.065071"/>
    <poly id="103892957" type="building.yes" color="255,230,230" fill="1" layer="-1.00" shape="419.277254,711.625404 413.831133,715.085255 406.836265,704.037312 406.281433,703.149561 411.667759,699.977586 419.277254,711.625404"/>
    <poly id="103892958" type="building.yes" color="255,230,230" fill="1" layer="-1.00" shape="387.354317,849.730289 384.598325,851.337399 382.039624,852.836869 368.972527,833.380064 374.413265,829.775612 387.354317,849.730289"/>
    <poly id="103892959" type="building.yes" color="255,230,230" fill="1" layer="-1.00" shape="361.995677,749.274811 362.580977,750.207550 358.684548,752.661330 355.159460,754.888303 347.489256,742.250423 346.841601,741.749995 347.987656,741.025679 345.299023,736.610686 343.732437,737.249776 339.197313,729.412639 346.812602,724.824198 351.017739,731.433063 351.557146,732.309423 347.124511,735.031558 350.065279,739.773290 354.379537,737.115743 355.139236,738.351619 361.995677,749.274811"/>
    <poly id="103892960" type="building.yes" color="255,230,230" fill="1" layer="-1.00" shape="393.702186,845.652921 390.532255,847.686118 387.354317,849.730289 374.413265,829.775612 368.319331,820.377270 374.833450,816.180578 381.193562,825.994819 377.470038,828.396079 380.520903,833.095323 381.746254,832.305737 384.005789,835.790769 386.337922,834.287293 393.702186,845.652921"/>
    <poly id="103892961" type="building.yes" color="255,230,230" fill="1" layer="-1.00" shape="332.574189,771.603204 317.949899,749.140676 302.841653,758.919904 317.466167,781.371288 322.854737,778.065923 332.574189,771.603204"/>
    <poly id="103892962" type="building.yes" color="255,230,230" fill="1" layer="-1.00" shape="795.704529,529.428394 799.319278,526.569802 785.187309,505.048400 781.968420,500.134825 777.287941,504.030262 775.641585,502.111809 748.343408,518.708299 766.738544,543.116894 771.833218,539.662213 773.890123,541.787989 795.704529,529.428394"/>
    <poly id="103892963" type="amenity.public_building" color="237,199,199" fill="1" layer="-1.00" shape="655.111406,555.584019 654.246954,556.291047 651.130437,558.825158 649.750637,559.945351 642.213192,548.654146 648.468626,545.408867 655.111406,555.584019"/>
    <poly id="103892963#1" type="building.yes" color="255,230,230" fill="1" layer="-1.00" shape="655.111406,555.584019 654.246954,556.291047 651.130437,558.825158 649.750637,559.945351 642.213192,548.654146 648.468626,545.408867 655.111406,555.584019"/>
    <poly id="103892965" type="amenity.public_building" color="237,199,199" fill="1" layer="-1.00" shape="608.514200,587.319583 620.315655,579.838439 620.933163,579.393745 622.340268,578.496293 612.604673,563.343248 606.873492,566.997924 609.101951,570.471373 605.331113,572.882779 603.125502,569.443076 598.801436,572.200304 608.514200,587.319583"/>
    <poly id="103892965#1" type="building.yes" color="255,230,230" fill="1" layer="-1.00" shape="608.514200,587.319583 620.315655,579.838439 620.933163,579.393745 622.340268,578.496293 612.604673,563.343248 606.873492,566.997924 609.101951,570.471373 605.331113,572.882779 603.125502,569.443076 598.801436,572.200304 608.514200,587.319583"/>
    <poly id="103892966" type="building.yes" color="255,230,230" fill="1" layer="-1.00" shape="342.176640,763.360332 334.702427,767.929046 319.227155,742.762095 326.543356,738.290588 327.303061,739.526461 329.891903,743.839663 327.245854,745.415403 330.297935,750.492487 331.399011,752.312277 331.611885,752.649434 334.503475,750.889113 342.176640,763.360332"/>
    <poly id="103892967" type="building.yes" color="255,230,230" fill="1" layer="-1.00" shape="361.287692,796.826460 367.555697,792.847670 359.790784,780.708188 356.384085,782.870574 353.522773,784.686985 361.287692,796.826460"/>
    <poly id="103892968" type="building.yes" color="255,230,230" fill="1" layer="-1.00" shape="758.530891,474.025307 757.124639,471.788839 755.064372,468.529471 744.686375,474.613146 748.149154,480.320060 758.530891,474.025307"/>
    <poly id="103892969" type="building.yes" color="255,230,230" fill="1" layer="-1.00" shape="356.388709,802.940957 360.776978,800.073574 359.353666,797.914687 361.287692,796.826460 353.522773,784.686985 349.253460,787.456458 345.964553,789.587593 351.490256,797.975682 352.628881,797.229009 356.388709,802.940957"/>
    <poly id="103892970" type="building.yes" color="255,230,230" fill="1" layer="-1.00" shape="755.064372,468.529471 750.991303,461.978239 739.140633,468.246943 742.792306,475.201877 744.686375,474.613146 755.064372,468.529471"/>
    <poly id="103892971" type="building.yes" color="255,230,230" fill="1" layer="-1.00" shape="401.560808,722.591817 402.259960,723.715497 395.393355,727.950381 388.295376,716.545016 384.890797,711.072709 391.804881,706.805313 394.874916,711.749389 401.560808,722.591817"/>
    <poly id="103892972" type="amenity.public_building" color="237,199,199" fill="1" layer="-1.00" shape="623.390909,576.103363 625.042196,575.099109 629.751092,572.237588 621.785731,560.394280 615.851200,564.056457 623.390909,576.103363"/>
    <poly id="103892972#1" type="building.yes" color="255,230,230" fill="1" layer="-1.00" shape="623.390909,576.103363 625.042196,575.099109 629.751092,572.237588 621.785731,560.394280 615.851200,564.056457 623.390909,576.103363"/>
    <poly id="103892973" type="building.yes" color="255,230,230" fill="1" layer="-1.00" shape="382.202568,736.685368 383.259505,738.348803 380.137386,740.327288 380.867399,741.473737 376.773077,744.068477 375.030252,741.414958 367.994517,730.466355 359.876253,717.531596 364.247187,714.763926 372.718560,728.060555 375.556072,726.265957 382.202568,736.685368"/>