<?xml version="1.0" encoding="UTF-8"?>

<!-- generated on 2022-03-01 13:11:14 by Eclipse SUMO polyconvert Version 1.9.2
<configuration xmlns:xsi="http://www.w3.org/2001/XMLSchema-instance" xsi:noNamespaceSchemaLocation="http://sumo.dlr.de/xsd/polyconvertConfiguration.xsd">

    <input>
        <net-file value="2022-03-01-13-07-21downtown_montreal_4.net.xml"/>
        <osm-files value="downtown_montreal_3.osm"/>
        <osm.keep-full-type value="true"/>
        <type-file value="osmPolyconvert.typ.xml"/>
    </input>

    <output>
        <output-file value="montreal_downtown.poly.xml"/>
    </output>

    <processing>
        <poi-layer-offset value="5"/>
    </processing>

</configuration>
-->

<additional xmlns:xsi="http://www.w3.org/2001/XMLSchema-instance" xsi:noNamespaceSchemaLocation="http://sumo.dlr.de/xsd/additional_file.xsd">
    <location netOffset="-609888.37,-5036959.38" convBoundary="-24048.32,-3710.93,4338.92,13291.06" origBoundary="-73.902292,45.446238,-73.535420,45.596409" projParameter="+proj=utm +zone=18 +ellps=WGS84 +datum=WGS84 +units=m +no_defs"/>

    <poly id="1001939245" type="building.roof" color="255,230,230" fill="1" layer="-1.00" shape="1396.565812,2507.627751 1388.419842,2494.114167 1401.552099,2486.023322 1409.925281,2499.063089 1396.565812,2507.627751"/>
    <poly id="1021815168" type="amenity.toilets" color="237,199,199" fill="1" layer="-1.00" shape="1632.729028,2735.506469 1627.597580,2738.860344 1631.196471,2744.347536 1636.289054,2740.981860 1632.729028,2735.506469"/>
    <poly id="1021815170" type="amenity.toilets" color="237,199,199" fill="1" layer="-1.00" shape="1635.323751,2736.374963 1641.142191,2732.622119 1646.447105,2729.182432 1648.075022,2728.166734 1647.375439,2727.076320 1652.782317,2723.616225 1647.847464,2716.349391 1643.197485,2719.433984 1629.540781,2728.459618 1632.753095,2733.273150 1634.207754,2732.332160 1635.152793,2733.682538 1633.857541,2734.448550 1635.323751,2736.374963"/>
    <poly id="1021815227" type="amenity.toilets" color="237,199,199" fill="1" layer="-1.00" shape="1621.665345,2746.378542 1624.708151,2751.055699 1616.090204,2756.670270 1616.910245,2758.018424 1615.560117,2758.794577 1616.600201,2760.513376 1611.644799,2763.637016 1606.656826,2756.280365 1621.665345,2746.378542"/>
    <poly id="1026106359" type="building.yes" color="255,230,230" fill="1" layer="-1.00" shape="787.216075,1553.403398 789.286439,1551.684036 774.945365,1533.850257 772.866207,1535.625034 787.216075,1553.403398"/>
    <poly id="1027470451" type="building.apartments" color="255,230,230" fill="1" layer="-1.00" shape="972.074380,1383.268008 978.615056,1379.382814 974.207628,1373.126084 973.007921,1373.782794 972.379529,1373.071570 967.809043,1376.046952 972.074380,1383.268008"/>
    <poly id="103248048" type="building.yes" color="255,230,230" fill="1" layer="-1.00" shape="1255.309818,2115.675346 1257.211282,2114.664388 1258.846640,2117.204921 1263.500866,2114.775787 1258.359333,2106.327646 1252.701247,2097.036876 1246.698902,2100.564570 1246.138265,2100.888035 1255.309818,2115.675346"/>
    <poly id="103248049" type="building.university" color="255,230,230" fill="1" layer="-1.00" shape="1186.673351,1984.080904 1180.002840,1976.339241 1191.473640,1967.662875 1192.909313,1969.566404 1196.087241,1967.533387 1194.032204,1965.296613 1205.932240,1956.216684 1211.104603,1963.376197 1214.118100,1967.541402 1213.888652,1968.581974 1192.642155,1980.685915 1187.328541,1983.714654 1186.673351,1984.080904"/>
    <poly id="103248050" type="building.retail" color="255,230,230" fill="1" layer="-1.00" shape="1138.329154,1831.431311 1165.123294,1810.168107 1234.935912,1898.875233 1238.421520,1903.304411 1242.883422,1899.827218 1247.386254,1900.218122 1250.942707,1905.059748 1217.536418,1930.739676 1214.936710,1927.481959 1208.124061,1918.937606 1202.871305,1912.343444 1187.739514,1893.372221 1138.329154,1831.431311"/>
    <poly id="103248051" type="building.yes" color="255,230,230" fill="1" layer="-1.00" shape="1271.665768,2174.475696 1274.639104,2172.516889 1277.533131,2170.623356 1276.657456,2169.318720 1261.673092,2146.927048 1259.545925,2148.767491 1262.140952,2154.047740 1259.423927,2155.655473 1271.665768,2174.475696"/>
    <poly id="103248052" type="building.yes" color="255,230,230" fill="1" layer="-1.00" shape="1179.943741,2109.951316 1167.471862,2092.182964 1171.069863,2090.257388 1173.407899,2094.166134 1174.464105,2093.662509 1177.224049,2097.578723 1178.500452,2096.556679 1184.730776,2105.757489 1186.745352,2104.537362 1191.557020,2111.757159 1192.668636,2113.421578 1185.147341,2117.989303 1184.640575,2117.035717 1179.943741,2109.951316"/>
    <poly id="103248054" type="amenity.place_of_worship" color="237,199,199" fill="1" layer="-1.00" shape="1277.966355,2150.138410 1282.975754,2151.482936 1284.374020,2155.052797 1289.446201,2152.853350 1294.733225,2162.348733 1303.197832,2157.475572 1300.959502,2153.679672 1303.293894,2152.054063 1304.518536,2153.953883 1311.725585,2149.480749 1308.059474,2143.781427 1312.687174,2141.085144 1317.796794,2138.097350 1316.176563,2135.145884 1323.376160,2131.094930 1312.961637,2115.452002 1305.532571,2120.543537 1304.089684,2119.051037 1306.424089,2117.425429 1304.697885,2115.161103 1302.536172,2112.333403 1296.804910,2115.999210 1299.857353,2121.487616 1301.126489,2120.876654 1302.139986,2122.783844 1296.623625,2126.231196 1293.978662,2122.005796 1287.633582,2125.027287 1285.791357,2122.694231 1289.598366,2120.883557 1286.938104,2117.080188 1288.210979,2116.258140 1286.982191,2114.591627 1284.936683,2111.821558 1283.023858,2113.032342 1280.360381,2109.851255 1260.644406,2122.048748 1273.489853,2142.535520 1275.820503,2141.120985 1277.045155,2143.020798 1275.938961,2146.346256 1277.966355,2150.138410"/>
    <poly id="103248055" type="building.yes" color="255,230,230" fill="1" layer="-1.00" shape="1091.440042,1868.631076 1115.501806,1848.052820 1118.413388,1849.148951 1120.385584,1850.328486 1123.075543,1852.465333 1124.198183,1853.952123 1146.568126,1881.297172 1118.801755,1904.521383 1091.440042,1868.631076"/>
    <poly id="103248056" type="building.apartments" color="255,230,230" fill="1" layer="-1.00" shape="1186.745352,2104.537362 1174.710335,2085.932130 1191.669207,2074.952464 1195.589366,2080.878472 1208.514139,2100.433000 1191.557020,2111.757159 1186.745352,2104.537362"/>
    <poly id="103248058" type="building.yes" color="255,230,230" fill="1" layer="-1.00" shape="1217.140242,1931.043830 1233.590370,1951.472068 1236.761164,1955.139980 1242.407624,1950.972523 1243.322855,1951.811101 1249.427527,1946.484885 1250.043883,1947.429303 1256.211409,1942.526506 1256.927370,1943.583820 1262.772787,1938.775343 1263.383435,1940.041942 1269.227089,1935.333457 1269.837737,1936.600056 1275.468805,1932.421242 1276.178919,1933.367323 1282.676078,1927.948073 1259.080409,1898.802701 1250.942707,1905.059748 1217.536418,1930.739676 1217.140242,1931.043830"/>
    <poly id="103248059" type="building.yes" color="255,230,230" fill="1" layer="-1.00" shape="1261.673092,2146.927048 1257.668135,2140.499401 1263.698750,2137.138916 1274.246177,2152.784114 1275.532446,2152.529071 1284.454599,2165.945097 1283.330774,2166.736447 1284.758892,2169.062166 1282.651938,2170.202832 1280.829010,2171.192947 1278.309283,2168.281121 1276.657456,2169.318720 1261.673092,2146.927048"/>
    <poly id="103248061" type="building.yes" color="255,230,230" fill="1" layer="-1.00" shape="1238.295865,1892.744715 1248.778975,1886.451393 1230.710628,1858.970974 1225.516206,1862.324076 1199.359718,1829.899693 1190.974321,1836.019075 1217.630133,1869.819177 1221.241256,1867.160392 1238.295865,1892.744715"/>
    <poly id="103248062" type="building.apartments" color="255,230,230" fill="1" layer="-1.00" shape="1208.514139,2100.433000 1232.153410,2085.593210 1218.765729,2066.141567 1195.589366,2080.878472 1208.514139,2100.433000"/>
    <poly id="103248063" type="building.construction" color="255,230,230" fill="1" layer="-1.00" shape="1277.200475,2098.515448 1267.600088,2084.553994 1268.311540,2084.099844 1285.621395,2073.171095 1286.086192,2073.846117 1288.828286,2077.884310 1291.524481,2081.866126 1294.814946,2086.714183 1277.200475,2098.515448"/>
    <poly id="103248064" type="building.university" color="255,230,230" fill="1" layer="-1.00" shape="1181.301677,2068.112199 1189.789610,2062.805885 1191.323096,2064.922296 1215.722662,2048.640079 1239.088340,2084.571358 1257.305431,2072.280569 1277.278578,2058.809606 1252.673062,2022.722867 1240.302032,2031.038674 1235.608337,2023.776478 1238.373668,2022.091796 1237.879294,2020.438299 1246.822589,2014.139940 1230.299116,1989.920783 1227.526281,1985.848734 1216.774358,1992.326250 1215.233850,1993.254706 1214.306928,1992.193662 1186.743997,2009.675684 1162.137484,2026.165503 1164.272407,2030.070649 1161.429952,2031.698432 1158.195999,2033.808266 1181.301677,2068.112199"/>
    <poly id="103248065" type="building.yes" color="255,230,230" fill="1" layer="-1.00" shape="1252.701247,2097.036876 1259.283069,2092.563722 1265.602063,2102.488540 1258.359333,2106.327646 1252.701247,2097.036876"/>
    <poly id="103248570" type="amenity.clinic" color="237,199,199" fill="1" layer="-1.00" shape="979.571970,1929.642986 987.660946,1923.029118 999.834097,1913.075696 1001.047872,1906.751555 996.831804,1901.631708 991.045617,1894.250389 988.243060,1890.522436 963.359161,1910.775472 979.571970,1929.642986"/>
    <poly id="103248570#1" type="building.yes" color="255,230,230" fill="1" layer="-1.00" shape="979.571970,1929.642986 987.660946,1923.029118 999.834097,1913.075696 1001.047872,1906.751555 996.831804,1901.631708 991.045617,1894.250389 988.243060,1890.522436 963.359161,1910.775472 979.571970,1929.642986"/>
    <poly id="103248572" type="amenity.atm" color="237,199,199" fill="1" layer="-1.00" shape="1189.666375,2125.403955 1237.602267,2093.902299 1214.834071,2056.892515 1165.216373,2088.909130 1179.943741,2109.951316 1184.640575,2117.035717 1189.666375,2125.403955"/>
    <poly id="103248572#1" type="shop.convenience" color="237,199,255" fill="1" layer="-1.00" shape="1189.666375,2125.403955 1237.602267,2093.902299 1214.834071,2056.892515 1165.216373,2088.909130 1179.943741,2109.951316 1184.640575,2117.035717 1189.666375,2125.403955"/>
    <poly id="103248591" type="building.yes" color="255,230,230" fill="1" layer="-1.00" shape="1088.087882,2094.434847 1099.321994,2087.632255 1099.658492,2086.282405 1088.852866,2068.854856 1084.233843,2069.295491 1068.164791,2077.257293 1070.151979,2080.237405 1080.011725,2095.025499 1085.959828,2091.907876 1088.087882,2094.434847"/>
    <poly id="103521738" type="building.yes" color="255,230,230" fill="1" layer="-1.00" shape="1311.425233,2173.046390 1338.264497,2154.485236 1351.830526,2173.984769 1335.594097,2185.210186 1333.223897,2181.800896 1322.621097,2189.136579 1311.425233,2173.046390"/>
    <poly id="103521739" type="building.yes" color="255,230,230" fill="1" layer="-1.00" shape="1238.104154,2259.752465 1234.588405,2254.389241 1236.802400,2252.939288 1228.956732,2240.964869 1227.185770,2242.111503 1221.897177,2234.027517 1231.226682,2227.969359 1243.135700,2246.161302 1248.496455,2242.666699 1236.290411,2224.036073 1246.410887,2217.447401 1252.110349,2226.161020 1250.149701,2227.426532 1257.553804,2238.737481 1259.285315,2237.612384 1263.128353,2243.470397 1238.104154,2259.752465"/>
    <poly id="103521740" type="building.yes" color="255,230,230" fill="1" layer="-1.00" shape="1351.830526,2173.984769 1357.866901,2183.526832 1329.878911,2201.200717 1322.621097,2189.136579 1333.223897,2181.800896 1335.594097,2185.210186 1351.830526,2173.984769"/>
    <poly id="103521742" type="building.yes" color="255,230,230" fill="1" layer="-1.00" shape="1342.217829,2107.380035 1328.929356,2089.407950 1355.754180,2070.802150 1359.489082,2068.212318 1372.770493,2087.462355 1371.923255,2088.080783 1362.381663,2094.179435 1355.389409,2098.434058 1342.217829,2107.380035"/>
    <poly id="103521746" type="building.yes" color="255,230,230" fill="1" layer="-1.00" shape="1545.094439,2099.088161 1506.926845,2040.744418 1546.385508,2014.495567 1566.418553,2043.467681 1565.438661,2044.072614 1543.527534,2057.486045 1544.541167,2059.382166 1542.424932,2060.600375 1543.314618,2061.994203 1561.421603,2088.509441 1545.094439,2099.088161"/>
    <poly id="103521747" type="building.yes" color="255,230,230" fill="1" layer="-1.00" shape="1394.123703,2188.781636 1397.922728,2194.472257 1399.805674,2194.505649 1425.274543,2176.987419 1421.389981,2171.273038 1394.123703,2188.781636"/>
    <poly id="103521748" type="building.yes" color="255,230,230" fill="1" layer="-1.00" shape="1328.929356,2089.407950 1324.486100,2083.016944 1320.515441,2077.301106 1319.128286,2075.309499 1316.864661,2072.057690 1315.431608,2070.009705 1312.939488,2066.420455 1312.223158,2065.385353 1311.447865,2064.149171 1307.264316,2058.096175 1362.524438,2021.757645 1373.714868,2014.799171 1392.220646,2042.232237 1353.847089,2067.278819 1355.754180,2070.802150 1328.929356,2089.407950"/>
    <poly id="103521750" type="building.yes" color="255,230,230" fill="1" layer="-1.00" shape="1353.431740,2125.982166 1341.600723,2107.802510 1342.217829,2107.380035 1355.389409,2098.434058 1360.694371,2106.473994 1367.698373,2101.997323 1362.381663,2094.179435 1371.923255,2088.080783 1383.773268,2105.627385 1353.431740,2125.982166"/>
    <poly id="103521754" type="building.yes" color="255,230,230" fill="1" layer="-1.00" shape="1309.231001,2014.589762 1308.104558,2012.880607 1311.599759,2010.586553 1308.516876,2005.931090 1297.225859,2013.276856 1283.653553,2022.338102 1283.022194,2022.682538 1287.231533,2029.047140 1288.085402,2028.495497 1309.231001,2014.589762"/>
    <poly id="103521757" type="building.yes" color="255,230,230" fill="1" layer="-1.00" shape="1288.085402,2028.495497 1309.231001,2014.589762 1312.470075,2012.635678 1322.270219,2027.234188 1301.070785,2040.649947 1298.969553,2041.023904 1297.896444,2040.715950 1296.675670,2040.360928 1294.404027,2038.442562 1288.085402,2028.495497"/>
    <poly id="103521759" type="amenity.university" color="237,199,199" fill="1" layer="-1.00" shape="1277.013172,2012.463143 1274.317949,2014.160163 1247.980707,1972.575118 1264.278319,1962.328504 1270.538307,1958.383087 1291.989542,1944.882775 1296.526372,1942.029283 1318.788306,1977.174494 1311.485136,1981.768166 1315.568085,1988.208339 1290.821205,2003.772791 1277.013172,2012.463143"/>
    <poly id="103521759#1" type="building.yes" color="255,230,230" fill="1" layer="-1.00" shape="1277.013172,2012.463143 1274.317949,2014.160163 1247.980707,1972.575118 1264.278319,1962.328504 1270.538307,1958.383087 1291.989542,1944.882775 1296.526372,1942.029283 1318.788306,1977.174494 1311.485136,1981.768166 1315.568085,1988.208339 1290.821205,2003.772791 1277.013172,2012.463143"/>
    <poly id="103521760" type="building.yes" color="255,230,230" fill="1" layer="-1.00" shape="1283.653553,2022.338102 1277.013172,2012.463143 1290.821205,2003.772791 1297.225859,2013.276856 1283.653553,2022.338102"/>
    <poly id="103521761" type="building.retail" color="255,230,230" fill="1" layer="-1.00" shape="1427.892666,2290.221247 1416.302159,2272.612464 1406.225974,2257.308757 1378.669577,2275.334582 1338.177596,2301.810590 1358.394032,2333.219081 1427.892666,2290.221247"/>
    <poly id="103521761#1" type="shop.department_store" color="237,199,255" fill="1" layer="-1.00" shape="1427.892666,2290.221247 1416.302159,2272.612464 1406.225974,2257.308757 1378.669577,2275.334582 1338.177596,2301.810590 1358.394032,2333.219081 1427.892666,2290.221247"/>
    <poly id="103521763" type="building.yes" color="255,230,230" fill="1" layer="-1.00" shape="1429.728878,2173.932526 1441.616081,2165.575169 1424.498558,2137.899841 1411.345930,2146.657087 1429.728878,2173.932526"/>
    <poly id="103521764" type="building.yes" color="255,230,230" fill="1" layer="-1.00" shape="1465.783551,2147.856198 1452.342296,2127.947437 1465.993217,2119.743659 1478.979783,2139.288761 1465.783551,2147.856198"/>
    <poly id="103521765" type="building.yes" color="255,230,230" fill="1" layer="-1.00" shape="1404.860395,2145.697465 1421.389981,2171.273038 1394.123703,2188.781636 1377.086930,2163.597216 1404.860395,2145.697465"/>
    <poly id="103521766" type="building.yes" color="255,230,230" fill="1" layer="-1.00" shape="1387.505696,2119.484974 1404.860395,2145.697465 1377.086930,2163.597216 1360.550449,2138.399492 1387.505696,2119.484974"/>
    <poly id="103521768" type="building.yes" color="255,230,230" fill="1" layer="-1.00" shape="1478.979783,2139.288761 1485.976025,2134.812082 1473.103388,2115.013385 1465.993217,2119.743659 1478.979783,2139.288761"/>
    <poly id="103522207" type="building.yes" color="255,230,230" fill="1" layer="-1.00" shape="1047.183405,2011.619015 1069.128466,1994.903888 1065.782453,1990.532840 1057.513083,1979.940312 1039.227770,1956.746287 1037.586452,1958.073076 1022.745675,1969.935187 1019.435335,1972.388249 1033.028599,1989.098129 1032.958499,1993.064272 1047.183405,2011.619015"/>
    <poly id="103522208" type="building.yes" color="255,230,230" fill="1" layer="-1.00" shape="993.114636,1948.785650 1002.743364,1960.746793 1010.409581,1954.614461 1022.745675,1969.935187 1037.586452,1958.073076 1030.703480,1949.516566 1027.086697,1944.985171 1023.432413,1940.364211 1017.568947,1932.937047 1015.825586,1930.750294 997.348012,1945.404269 993.114636,1948.785650"/>
    <poly id="103522209" type="building.yes" color="255,230,230" fill="1" layer="-1.00" shape="1077.875313,2049.212777 1068.576567,2055.293935 1067.964474,2054.549646 1061.369915,2046.487173 1059.339328,2047.729282 1049.113241,2034.646171 1050.913599,2032.722088 1045.446207,2027.213350 1046.564585,2017.886988 1071.466668,2000.135056 1081.120963,2011.963423 1084.662677,2016.315715 1090.438315,2023.396888 1097.315666,2031.820013 1099.725361,2034.774267 1077.875313,2049.212777"/>
    <poly id="103892924" type="building.yes" color="255,230,230" fill="1" layer="-1.00" shape="1508.729405,2021.972970 1536.515432,2003.862843 1531.210399,1995.833867 1533.119441,1994.400826 1530.825822,1991.081726 1519.906843,1975.251682 1516.767427,1970.706240 1514.654916,1971.713376 1510.374529,1964.958394 1488.560123,1977.317989 1486.503218,1975.192213 1481.408544,1978.646894 1488.333652,1989.638447 1508.729405,2021.972970"/>
    <poly id="103892925" type="amenity.public_building" color="237,199,199" fill="1" layer="-1.00" shape="1350.995787,2003.705585 1353.057899,2002.453014 1353.713688,2002.053452 1357.347976,1999.850794 1346.944525,1983.574566 1340.384911,1987.225655 1343.644273,1992.506597 1350.995787,2003.705585"/>
    <poly id="103892925#1" type="building.yes" color="255,230,230" fill="1" layer="-1.00" shape="1350.995787,2003.705585 1353.057899,2002.453014 1353.713688,2002.053452 1357.347976,1999.850794 1346.944525,1983.574566 1340.384911,1987.225655 1343.644273,1992.506597 1350.995787,2003.705585"/>
    <poly id="103892926" type="building.yes" color="255,230,230" fill="1" layer="-1.00" shape="1076.767594,2169.759445 1074.571004,2171.109744 1070.270398,2164.154678 1065.687739,2166.963063 1066.227146,2167.839423 1068.684376,2171.639106 1070.730748,2170.386166 1072.045479,2172.498680 1069.809236,2173.881619 1076.665677,2184.804811 1083.476366,2180.635581 1076.767594,2169.759445"/>
    <poly id="103892927" type="building.yes" color="255,230,230" fill="1" layer="-1.00" shape="1096.709624,2288.366869 1093.831726,2290.238540 1090.771971,2292.229241 1077.908349,2273.198346 1083.642527,2268.910064 1096.709624,2288.366869"/>
    <poly id="103892928" type="building.yes" color="255,230,230" fill="1" layer="-1.00" shape="1089.700252,2176.944958 1083.476366,2180.635581 1076.767594,2169.759445 1082.664517,2165.996355 1089.700252,2176.944958"/>
    <poly id="103892929" type="building.yes" color="255,230,230" fill="1" layer="-1.00" shape="1063.241485,2194.369223 1056.846640,2198.890332 1049.173475,2186.419113 1044.561903,2179.369663 1041.973061,2175.056461 1045.823546,2172.990808 1047.890567,2176.316833 1050.845846,2174.490960 1055.413441,2181.817465 1063.241485,2194.369223"/>
    <poly id="103892930" type="building.yes" color="255,230,230" fill="1" layer="-1.00" shape="1120.678923,2272.487891 1113.956464,2261.511447 1110.997126,2263.126069 1105.894935,2255.101048 1104.487916,2255.998550 1102.077058,2257.533972 1107.301901,2265.694517 1114.526902,2276.979897 1117.678117,2274.679658 1120.678923,2272.487891"/>
    <poly id="103892931" type="building.yes" color="255,230,230" fill="1" layer="-1.00" shape="1069.829460,2190.418303 1070.421591,2191.406728 1067.238361,2193.306353 1063.707429,2195.422094 1063.241485,2194.369223 1055.413441,2181.817465 1062.159256,2177.780423 1069.829460,2190.418303"/>
    <poly id="103892933" type="building.yes" color="255,230,230" fill="1" layer="-1.00" shape="1139.995631,2143.228348 1131.982855,2130.962166 1130.615068,2131.849245 1124.907734,2123.124494 1120.227331,2126.153373 1126.337759,2135.507586 1133.947254,2147.155404 1139.995631,2143.228348"/>
    <poly id="103892933#1" type="landuse.commercial" color="209,209,204" fill="1" layer="-3.00" shape="1139.995631,2143.228348 1131.982855,2130.962166 1130.615068,2131.849245 1124.907734,2123.124494 1120.227331,2126.153373 1126.337759,2135.507586 1133.947254,2147.155404 1139.995631,2143.228348"/>
    <poly id="103892934" type="building.yes" color="255,230,230" fill="1" layer="-1.00" shape="1053.866287,2229.543198 1067.569664,2249.711310 1075.371831,2244.715007 1071.058709,2238.470957 1067.298881,2232.759009 1066.160256,2233.505682 1060.634553,2225.117593 1056.720564,2227.682203 1053.866287,2229.543198"/>
    <poly id="103892935" type="building.yes" color="255,230,230" fill="1" layer="-1.00" shape="1102.965376,2152.075016 1095.754603,2156.326055 1103.387370,2167.985360 1110.063355,2163.480381 1102.965376,2152.075016"/>
    <poly id="103892936" type="building.yes" color="255,230,230" fill="1" layer="-1.00" shape="1128.501133,2150.615255 1122.451985,2154.586761 1122.208844,2154.193500 1115.420798,2143.382598 1121.506265,2139.567312 1128.501133,2150.615255"/>
    <poly id="103892938" type="building.yes" color="255,230,230" fill="1" layer="-1.00" shape="1114.526902,2276.979897 1111.449543,2279.081408 1108.372186,2281.182921 1101.007922,2269.817293 1097.341653,2264.562618 1100.945037,2262.325934 1104.204441,2267.606753 1107.301901,2265.694517 1114.526902,2276.979897"/>
    <poly id="103892939" type="building.yes" color="255,230,230" fill="1" layer="-1.00" shape="1122.208844,2154.193500 1116.230808,2158.121817 1109.544916,2147.279389 1115.420798,2143.382598 1122.208844,2154.193500"/>
    <poly id="103892941" type="building.yes" color="255,230,230" fill="1" layer="-1.00" shape="1477.278209,1916.306657 1475.554640,1913.453334 1473.200891,1909.555307 1462.819154,1915.850060 1466.690373,1922.764443 1477.278209,1916.306657"/>
    <poly id="103892942" type="building.yes" color="255,230,230" fill="1" layer="-1.00" shape="1095.754603,2156.326055 1089.318712,2160.513014 1090.226072,2161.795957 1096.872568,2172.215368 1103.387370,2167.985360 1095.754603,2156.326055"/>
    <poly id="103892947" type="amenity.public_building" color="237,199,199" fill="1" layer="-1.00" shape="1387.693848,1979.284943 1382.991873,1972.055825 1375.041045,1959.834879 1352.589322,1977.740206 1363.138626,1980.938867 1369.781406,1991.114019 1372.826163,1989.100954 1377.310081,1986.146564 1379.429655,1984.739436 1381.778376,1983.191900 1387.693848,1979.284943"/>
    <poly id="103892947#1" type="building.yes" color="255,230,230" fill="1" layer="-1.00" shape="1387.693848,1979.284943 1382.991873,1972.055825 1375.041045,1959.834879 1352.589322,1977.740206 1363.138626,1980.938867 1369.781406,1991.114019 1372.826163,1989.100954 1377.310081,1986.146564 1379.429655,1984.739436 1381.778376,1983.191900 1387.693848,1979.284943"/>
    <poly id="103892948" type="amenity.public_building" color="237,199,199" fill="1" layer="-1.00" shape="1344.421092,2007.767588 1350.995787,2003.705585 1343.644273,1992.506597 1336.455731,1995.924280 1344.421092,2007.767588"/>
    <poly id="103892948#1" type="building.yes" color="255,230,230" fill="1" layer="-1.00" shape="1344.421092,2007.767588 1350.995787,2003.705585 1343.644273,1992.506597 1336.455731,1995.924280 1344.421092,2007.767588"/>
    <poly id="103892950" type="building.university" color="255,230,230" fill="1" layer="-1.00" shape="1297.301685,1862.973091 1285.262749,1844.578739 1316.637072,1824.664198 1326.049592,1837.777784 1340.123487,1840.572105 1342.790082,1844.464509 1338.295182,1847.152016 1326.356745,1844.262183 1312.408995,1853.316726 1313.581305,1855.526784 1307.224732,1859.181509 1305.574559,1857.474189 1297.301685,1862.973091"/>
    <poly id="103892951" type="amenity.public_building" color="237,199,199" fill="1" layer="-1.00" shape="1357.347976,1999.850794 1361.362426,1997.365936 1362.223725,1996.836661 1364.420637,1995.475351 1356.883192,1984.184146 1352.589322,1977.740206 1352.505541,1977.616476 1346.141779,1981.682217 1346.944525,1983.574566 1357.347976,1999.850794"/>
    <poly id="103892951#1" type="building.yes" color="255,230,230" fill="1" layer="-1.00" shape="1357.347976,1999.850794 1361.362426,1997.365936 1362.223725,1996.836661 1364.420637,1995.475351 1356.883192,1984.184146 1352.589322,1977.740206 1352.505541,1977.616476 1346.141779,1981.682217 1346.944525,1983.574566 1357.347976,1999.850794"/>
    <poly id="103892952" type="building.yes" color="255,230,230" fill="1" layer="-1.00" shape="1477.278209,1916.306657 1466.690373,1922.764443 1465.623541,1923.423415 1467.228979,1927.208143 1463.414310,1929.440879 1461.994010,1927.115258 1453.310393,1931.973220 1457.172490,1938.520702 1481.773176,1922.865385 1477.278209,1916.306657"/>
    <poly id="103892955" type="building.yes" color="255,230,230" fill="1" layer="-1.00" shape="1461.314527,1882.595071 1456.227222,1873.736545 1444.361737,1880.838490 1443.825742,1875.805843 1446.145490,1875.013509 1448.483766,1873.176870 1449.989748,1871.114316 1450.659368,1868.614626 1450.703713,1866.114956 1450.112142,1864.215227 1448.898519,1861.693241 1446.201378,1859.967309 1443.075145,1859.078366 1440.137280,1859.026251 1437.602818,1860.025928 1434.631975,1862.273650 1433.740038,1864.969435 1433.262865,1868.517175 1433.839858,1871.239016 1435.275287,1873.153711 1432.056440,1877.486305 1425.319473,1867.331647 1412.931695,1874.357708 1407.104884,1877.666108 1396.933802,1883.542405 1412.635421,1908.692051 1424.289855,1901.586305 1426.121064,1904.541540 1429.685507,1902.315456 1461.314527,1882.595071"/>
    <poly id="103892957" type="building.yes" color="255,230,230" fill="1" layer="-1.00" shape="1133.947254,2147.155404 1128.501133,2150.615255 1121.506265,2139.567312 1120.951433,2138.679561 1126.337759,2135.507586 1133.947254,2147.155404"/>
    <poly id="103892958" type="building.yes" color="255,230,230" fill="1" layer="-1.00" shape="1102.024317,2285.260289 1099.268325,2286.867399 1096.709624,2288.366869 1083.642527,2268.910064 1089.083265,2265.305612 1102.024317,2285.260289"/>
    <poly id="103892959" type="building.yes" color="255,230,230" fill="1" layer="-1.00" shape="1076.665677,2184.804811 1077.250977,2185.737550 1073.354548,2188.191330 1069.829460,2190.418303 1062.159256,2177.780423 1061.511601,2177.279995 1062.657656,2176.555679 1059.969023,2172.140686 1058.402437,2172.779776 1053.867313,2164.942639 1061.482602,2160.354198 1065.687739,2166.963063 1066.227146,2167.839423 1061.794511,2170.561558 1064.735279,2175.303290 1069.049537,2172.645743 1069.809236,2173.881619 1076.665677,2184.804811"/>
    <poly id="103892960" type="building.yes" color="255,230,230" fill="1" layer="-1.00" shape="1108.372186,2281.182921 1105.202255,2283.216118 1102.024317,2285.260289 1089.083265,2265.305612 1082.989331,2255.907270 1089.503450,2251.710578 1095.863562,2261.524819 1092.140038,2263.926079 1095.190903,2268.625323 1096.416254,2267.835737 1098.675789,2271.320769 1101.007922,2269.817293 1108.372186,2281.182921"/>
    <poly id="103892961" type="building.yes" color="255,230,230" fill="1" layer="-1.00" shape="1047.244189,2207.133204 1032.619899,2184.670676 1017.511653,2194.449904 1032.136167,2216.901288 1037.524737,2213.595923 1047.244189,2207.133204"/>
    <poly id="103892962" type="building.yes" color="255,230,230" fill="1" layer="-1.00" shape="1510.374529,1964.958394 1513.989278,1962.099802 1499.857309,1940.578400 1496.638420,1935.664825 1491.957941,1939.560262 1490.311585,1937.641809 1463.013408,1954.238299 1481.408544,1978.646894 1486.503218,1975.192213 1488.560123,1977.317989 1510.374529,1964.958394"/>
    <poly id="103892963" type="amenity.public_building" color="237,199,199" fill="1" layer="-1.00" shape="1369.781406,1991.114019 1368.916954,1991.821047 1365.800437,1994.355158 1364.420637,1995.475351 1356.883192,1984.184146 1363.138626,1980.938867 1369.781406,1991.114019"/>
    <poly id="103892963#1" type="building.yes" color="255,230,230" fill="1" layer="-1.00" shape="1369.781406,1991.114019 1368.916954,1991.821047 1365.800437,1994.355158 1364.420637,1995.475351 1356.883192,1984.184146 1363.138626,1980.938867 1369.781406,1991.114019"/>
    <poly id="103892965" type="amenity.public_building" color="237,199,199" fill="1" layer="-1.00" shape="1323.184200,2022.849583 1334.985655,2015.368439 1335.603163,2014.923745 1337.010268,2014.026293 1327.274673,1998.873248 1321.543492,2002.527924 1323.771951,2006.001373 1320.001113,2008.412779 1317.795502,2004.973076 1313.471436,2007.730304 1323.184200,2022.849583"/>
    <poly id="103892965#1" type="building.yes" color="255,230,230" fill="1" layer="-1.00" shape="1323.184200,2022.849583 1334.985655,2015.368439 1335.603163,2014.923745 1337.010268,2014.026293 1327.274673,1998.873248 1321.543492,2002.527924 1323.771951,2006.001373 1320.001113,2008.412779 1317.795502,2004.973076 1313.471436,2007.730304 1323.184200,2022.849583"/>